[RISCVDEBUG] m5.main invoked
gem5 Simulator System.  http://gem5.org
gem5 is copyrighted software; use the --copyright option for details.

gem5 compiled Dec 22 2016 19:01:45
gem5 started Dec 22 2016 19:02:26
gem5 executing on dongx-MS-7850, pid 13387
command line: build/X86/gem5.debug /home/dongx/gem5/configs/example/dev.py --caches --l1d_size=64kB -c /home/dongx/gem5/tests/test-progs/matrix/cache.o

[RISCVDEBUG](/home/dongx/gem5/src/python/m5/main.py:328)[options.debug_break] => []
Global frequency set at 1000000000000 ticks per second
info: Cache created: p->name=system.cpu.dcache
info: Cache created: p->name=system.cpu.dtb_walker_cache
info: Cache created: p->name=system.cpu.icache
info: Cache created: p->name=system.cpu.itb_walker_cache
**** REAL SIMULATION ****
info: Entering event queue @ 0.  Starting simulation...
Row: 200
Col: 192
176 177 178 179 179 178 181 179 181 175 183 177 183 193 166 189 187 110 076 103 184 172 186 184 182 182 182 179 180 180 178 180 178 178 180 181 180 181 179 182 179 179 181 180 179 179 179 177 182 179 181 182 181 179 180 183 180 181 181 181 181 179 182 184 173 179 180 179 182 176 183 178 183 181 176 180 176 183 185 178 159 175 179 184 177 181 183 182 193 122 156 186 178 177 181 180 180 179 183 180 179 177 181 171 173 182 179 164 178 178 181 184 194 104 043 054 063 172 184 182 183 179 180 186 180 182 171 163 174 180 176 180 182 177 181 185 149 118 091 056 042 099 194 186 165 180 178 176 177 174 178 178 173 175 177 175 172 180 167 177 175 174 174 165 175 174 173 176 177 172 173 178 172 174 177 178 176 174 174 173 177 176 169 176 175 178 172 178 177 182 160 125 
176 177 178 179 179 178 181 179 181 175 183 177 183 193 166 189 187 110 076 103 184 172 186 184 182 182 182 179 180 180 178 180 178 178 180 181 180 181 179 182 179 179 181 180 179 179 179 177 182 179 181 182 181 179 180 183 180 181 181 181 181 179 182 184 173 179 180 179 182 176 183 178 183 181 176 180 176 183 185 178 159 175 179 184 177 181 183 182 193 122 156 186 178 177 181 180 180 179 183 180 179 177 181 171 173 182 179 164 178 178 181 184 194 104 043 054 063 172 184 182 183 179 180 186 180 182 171 163 174 180 176 180 182 177 181 185 149 118 091 056 042 099 194 186 165 180 178 176 177 174 178 178 173 175 177 175 172 180 167 177 175 174 174 165 175 174 173 176 177 172 173 178 172 174 177 178 176 174 174 173 177 176 169 176 175 178 172 178 177 182 160 125 
176 176 176 178 177 178 177 178 178 179 179 184 178 191 169 156 154 102 076 074 183 167 183 181 184 183 180 177 181 180 181 179 180 180 178 178 181 181 178 181 180 179 181 181 175 178 182 177 178 177 179 185 179 179 182 179 181 181 181 181 181 179 179 180 181 179 179 180 184 181 176 188 178 180 174 179 179 181 183 175 152 190 178 180 180 175 180 182 189 113 166 176 183 186 177 173 181 177 180 178 177 184 180 174 181 171 167 177 180 179 178 180 188 179 073 048 050 091 186 188 181 181 179 189 197 175 178 180 163 174 181 177 180 182 181 183 173 092 114 093 059 087 195 182 176 170 178 186 179 180 179 174 180 177 175 180 178 174 172 180 176 178 177 176 169 171 175 176 175 179 176 175 173 178 172 172 173 173 175 178 175 168 171 175 170 174 173 182 177 145 098 052 
176 176 176 178 177 178 177 178 178 179 179 184 178 191 169 156 154 102 076 074 183 167 183 181 184 183 180 177 181 180 181 179 180 180 178 178 181 181 178 181 180 179 181 181 175 178 182 177 178 177 179 185 179 179 182 179 181 181 181 181 181 179 179 180 181 179 179 180 184 181 176 188 178 180 174 179 179 181 183 175 152 190 178 180 180 175 180 182 189 113 166 176 183 186 177 173 181 177 180 178 177 184 180 174 181 171 167 177 180 179 178 180 188 179 073 048 050 091 186 188 181 181 179 189 197 175 178 180 163 174 181 177 180 182 181 183 173 092 114 093 059 087 195 182 176 170 178 186 179 180 179 174 180 177 175 180 178 174 172 180 176 178 177 176 169 171 175 176 175 179 176 175 173 178 172 172 173 173 175 178 175 168 171 175 170 174 173 182 177 145 098 052 
180 180 179 179 178 177 182 176 182 181 179 182 171 195 182 173 114 093 084 066 167 172 177 182 179 176 182 183 181 179 180 178 178 177 177 178 179 180 177 181 178 178 180 180 178 180 178 177 181 179 179 179 181 180 177 182 180 181 181 181 181 179 180 183 178 182 181 178 183 179 181 179 180 183 179 179 181 178 186 159 167 183 179 177 182 180 184 180 178 107 180 182 182 178 181 175 179 179 180 177 183 178 178 186 169 165 178 182 176 183 177 180 180 188 158 056 049 048 132 182 181 177 192 202 174 183 179 178 181 164 173 179 177 177 186 185 176 087 071 083 123 126 190 175 179 178 179 175 182 180 181 179 176 175 176 174 179 173 174 177 178 176 176 173 174 164 177 175 176 174 175 177 173 175 174 174 174 176 177 180 177 177 174 176 174 183 177 159 119 065 038 082 
180 180 179 179 178 177 182 176 182 181 179 182 171 195 182 173 114 093 084 066 167 172 177 182 179 176 182 183 181 179 180 178 178 177 177 178 179 180 177 181 178 178 180 180 178 180 178 177 181 179 179 179 181 180 177 182 180 181 181 181 181 179 180 183 178 182 181 178 183 179 181 179 180 183 179 179 181 178 186 159 167 183 179 177 182 180 184 180 178 107 180 182 182 178 181 175 179 179 180 177 183 178 178 186 169 165 178 182 176 183 177 180 180 188 158 056 049 048 132 182 181 177 192 202 174 183 179 178 181 164 173 179 177 177 186 185 176 087 071 083 123 126 190 175 179 178 179 175 182 180 181 179 176 175 176 174 179 173 174 177 178 176 176 173 174 164 177 175 176 174 175 177 173 175 174 174 174 176 177 180 177 177 174 176 174 183 177 159 119 065 038 082 
179 179 178 182 185 178 178 179 179 177 178 184 176 193 185 176 158 141 094 061 150 173 180 177 181 180 183 178 178 180 177 180 177 181 177 180 181 180 179 179 178 183 176 177 178 182 178 185 180 182 179 180 180 181 181 180 183 181 180 179 179 181 182 181 181 181 183 177 180 180 182 185 186 181 176 180 179 177 184 155 175 184 180 178 181 183 183 179 173 107 186 179 181 183 185 181 179 184 181 175 180 182 181 162 172 179 179 177 177 177 181 181 180 184 194 133 046 052 054 152 193 202 189 171 178 179 181 174 176 178 166 163 183 174 183 187 173 096 076 054 047 099 163 188 183 177 177 179 179 180 182 176 177 180 177 179 179 176 178 175 174 173 174 177 174 176 165 175 177 179 178 178 174 176 176 173 175 177 178 177 174 181 178 177 181 176 135 090 047 053 132 183 
179 179 178 182 185 178 178 179 179 177 178 184 176 193 185 176 158 141 094 061 150 173 180 177 181 180 183 178 178 180 177 180 177 181 177 180 181 180 179 179 178 183 176 177 178 182 178 185 180 182 179 180 180 181 181 180 183 181 180 179 179 181 182 181 181 181 183 177 180 180 182 185 186 181 176 180 179 177 184 155 175 184 180 178 181 183 183 179 173 107 186 179 181 183 185 181 179 184 181 175 180 182 181 162 172 179 179 177 177 177 181 181 180 184 194 133 046 052 054 152 193 202 189 171 178 179 181 174 176 178 166 163 183 174 183 187 173 096 076 054 047 099 163 188 183 177 177 179 179 180 182 176 177 180 177 179 179 176 178 175 174 173 174 177 174 176 165 175 177 179 178 178 174 176 176 173 175 177 178 177 174 181 178 177 181 176 135 090 047 053 132 183 
178 176 180 180 176 181 185 182 179 180 180 180 178 183 185 172 188 182 108 067 121 183 168 179 182 180 182 179 178 179 178 180 182 177 180 179 180 178 177 179 176 182 178 185 176 182 183 179 178 181 181 176 176 179 180 180 181 182 182 181 183 184 182 179 178 178 182 180 182 182 180 180 182 181 181 181 183 178 179 149 188 176 181 182 181 180 179 192 150 118 193 168 181 182 179 176 180 179 180 181 186 173 165 177 182 179 182 176 179 179 176 180 177 182 186 188 095 047 053 084 199 191 179 174 183 180 180 178 181 179 179 165 168 181 178 179 180 098 086 049 052 053 136 122 168 179 179 183 176 179 179 181 178 180 176 175 178 175 178 177 175 178 178 175 178 181 169 169 177 173 174 179 174 179 175 181 174 178 178 172 178 176 181 179 153 118 070 041 085 170 184 183 
178 176 180 180 176 181 185 182 179 180 180 180 178 183 185 172 188 182 108 067 121 183 168 179 182 180 182 179 178 179 178 180 182 177 180 179 180 178 177 179 176 182 178 185 176 182 183 179 178 181 181 176 176 179 180 180 181 182 182 181 183 184 182 179 178 178 182 180 182 182 180 180 182 181 181 181 183 178 179 149 188 176 181 182 181 180 179 192 150 118 193 168 181 182 179 176 180 179 180 181 186 173 165 177 182 179 182 176 179 179 176 180 177 182 186 188 095 047 053 084 199 191 179 174 183 180 180 178 181 179 179 165 168 181 178 179 180 098 086 049 052 053 136 122 168 179 179 183 176 179 179 181 178 180 176 175 178 175 178 177 175 178 178 175 178 181 169 169 177 173 174 179 174 179 175 181 174 178 178 172 178 176 181 179 153 118 070 041 085 170 184 183 
177 179 181 179 179 181 180 181 180 181 181 179 180 182 201 175 181 190 120 071 084 191 168 182 174 179 179 180 180 178 180 181 181 180 180 181 180 181 181 184 178 182 178 183 180 181 174 180 182 182 178 181 181 181 181 182 179 179 180 180 180 178 183 181 182 182 184 177 179 180 182 183 181 180 181 182 181 184 165 156 187 178 181 178 180 183 180 189 141 128 186 177 184 176 183 183 181 182 179 181 172 172 179 175 181 177 177 178 177 178 182 180 181 179 178 191 169 059 056 039 116 190 177 183 178 184 180 180 181 174 187 179 171 162 181 185 179 091 077 072 148 103 190 148 116 146 182 180 182 180 182 177 179 178 177 181 181 177 179 176 174 174 173 178 172 177 180 162 171 178 176 175 173 177 172 177 176 177 177 175 178 179 171 134 087 047 053 143 191 181 184 177 
177 179 181 179 179 181 180 181 180 181 181 179 180 182 201 175 181 190 120 071 084 191 168 182 174 179 179 180 180 178 180 181 181 180 180 181 180 181 181 184 178 182 178 183 180 181 174 180 182 182 178 181 181 181 181 182 179 179 180 180 180 178 183 181 182 182 184 177 179 180 182 183 181 180 181 182 181 184 165 156 187 178 181 178 180 183 180 189 141 128 186 177 184 176 183 183 181 182 179 181 172 172 179 175 181 177 177 178 177 178 182 180 181 179 178 191 169 059 056 039 116 190 177 183 178 184 180 180 181 174 187 179 171 162 181 185 179 091 077 072 148 103 190 148 116 146 182 180 182 180 182 177 179 178 177 181 181 177 179 176 174 174 173 178 172 177 180 162 171 178 176 175 173 177 172 177 176 177 177 175 178 179 171 134 087 047 053 143 191 181 184 177 
180 178 176 178 181 179 178 181 181 179 178 180 183 179 191 174 174 193 140 081 073 177 164 185 180 181 176 184 184 178 180 181 181 182 181 182 182 180 179 179 180 182 180 181 180 184 181 182 178 185 184 180 179 182 183 181 181 182 182 183 183 182 182 183 182 182 182 185 187 179 178 185 181 178 183 184 177 194 158 175 187 182 183 177 181 180 177 192 127 150 185 175 180 182 179 180 180 179 179 168 175 180 177 179 180 178 183 181 175 184 178 176 177 184 176 183 192 159 053 052 055 140 190 178 181 183 181 185 186 173 186 181 176 183 168 173 189 101 075 045 062 066 169 183 177 117 124 170 178 181 178 176 179 181 178 176 176 177 177 178 178 179 176 178 178 177 177 180 166 174 176 171 181 179 178 173 178 176 179 178 185 153 107 064 047 093 169 183 178 182 177 179 
180 178 176 178 181 179 178 181 181 179 178 180 183 179 191 174 174 193 140 081 073 177 164 185 180 181 176 184 184 178 180 181 181 182 181 182 182 180 179 179 180 182 180 181 180 184 181 182 178 185 184 180 179 182 183 181 181 182 182 183 183 182 182 183 182 182 182 185 187 179 178 185 181 178 183 184 177 194 158 175 187 182 183 177 181 180 177 192 127 150 185 175 180 182 179 180 180 179 179 168 175 180 177 179 180 178 183 181 175 184 178 176 177 184 176 183 192 159 053 052 055 140 190 178 181 183 181 185 186 173 186 181 176 183 168 173 189 101 075 045 062 066 169 183 177 117 124 170 178 181 178 176 179 181 178 176 176 177 177 178 178 179 176 178 178 177 177 180 166 174 176 171 181 179 178 173 178 176 179 178 185 153 107 064 047 093 169 183 178 182 177 179 
183 180 179 180 181 181 180 181 181 180 181 181 179 180 186 163 161 171 142 078 056 149 178 185 179 185 182 180 181 185 183 182 182 181 180 179 178 178 178 180 182 182 178 181 180 182 180 184 180 181 180 181 180 180 180 181 179 180 180 180 181 182 182 181 179 178 178 178 179 183 180 176 181 186 186 186 185 192 159 192 187 188 180 184 185 182 177 191 111 158 183 177 179 179 186 179 184 182 165 174 183 174 183 179 177 183 177 177 177 178 177 179 182 175 181 187 203 200 102 043 054 070 185 185 180 182 183 180 182 184 179 185 183 181 183 172 175 106 071 055 038 052 142 185 173 179 143 120 150 180 176 176 181 176 175 180 178 178 178 176 176 177 177 176 177 178 178 177 180 169 169 177 170 180 186 171 180 177 180 176 137 084 049 060 131 183 180 179 178 179 178 181 
183 180 179 180 181 181 180 181 181 180 181 181 179 180 186 163 161 171 142 078 056 149 178 185 179 185 182 180 181 185 183 182 182 181 180 179 178 178 178 180 182 182 178 181 180 182 180 184 180 181 180 181 180 180 180 181 179 180 180 180 181 182 182 181 179 178 178 178 179 183 180 176 181 186 186 186 185 192 159 192 187 188 180 184 185 182 177 191 111 158 183 177 179 179 186 179 184 182 165 174 183 174 183 179 177 183 177 177 177 178 177 179 182 175 181 187 203 200 102 043 054 070 185 185 180 182 183 180 182 184 179 185 183 181 183 172 175 106 071 055 038 052 142 185 173 179 143 120 150 180 176 176 181 176 175 180 178 178 178 176 176 177 177 176 177 178 178 177 180 169 169 177 170 180 186 171 180 177 180 176 137 084 049 060 131 183 180 179 178 179 178 181 
179 179 178 176 178 181 181 181 180 180 182 180 180 184 185 181 173 188 175 130 086 134 187 176 186 179 182 180 181 184 177 180 180 180 181 181 181 183 180 177 178 180 181 182 179 182 179 183 179 179 178 182 182 180 181 183 177 181 183 183 181 180 183 185 185 182 182 183 185 184 187 191 189 189 195 191 195 187 170 200 194 197 191 191 191 187 182 189 105 167 176 186 175 182 173 184 176 166 180 183 183 178 176 177 183 176 179 178 181 176 179 179 174 177 192 196 180 191 178 072 048 037 105 195 185 184 180 183 181 178 183 174 182 185 179 183 183 105 081 049 056 060 182 177 184 175 187 168 137 136 164 187 179 175 178 178 178 178 178 176 176 177 180 179 179 180 180 179 176 175 172 173 180 174 179 184 183 187 157 106 063 043 099 167 181 174 178 173 177 182 176 177 
179 179 178 176 178 181 181 181 180 180 182 180 180 184 185 181 173 188 175 130 086 134 187 176 186 179 182 180 181 184 177 180 180 180 181 181 181 183 180 177 178 180 181 182 179 182 179 183 179 179 178 182 182 180 181 183 177 181 183 183 181 180 183 185 185 182 182 183 185 184 187 191 189 189 195 191 195 187 170 200 194 197 191 191 191 187 182 189 105 167 176 186 175 182 173 184 176 166 180 183 183 178 176 177 183 176 179 178 181 176 179 179 174 177 192 196 180 191 178 072 048 037 105 195 185 184 180 183 181 178 183 174 182 185 179 183 183 105 081 049 056 060 182 177 184 175 187 168 137 136 164 187 179 175 178 178 178 178 178 176 176 177 180 179 179 180 180 179 176 175 172 173 180 174 179 184 183 187 157 106 063 043 099 167 181 174 178 173 177 182 176 177 
182 181 179 182 180 176 178 183 178 181 179 181 180 179 184 195 172 191 136 094 073 072 130 160 189 182 184 184 179 181 183 184 182 178 185 180 180 180 180 181 183 179 182 180 179 185 182 182 179 181 182 179 181 182 183 180 184 183 177 181 182 187 188 193 197 190 195 196 194 197 196 191 198 203 197 196 202 178 186 202 202 194 203 191 197 199 195 193 109 184 180 183 181 179 189 171 171 182 176 179 183 180 184 182 184 181 175 180 184 180 185 182 181 202 192 182 183 184 192 157 048 058 044 137 195 181 182 178 180 178 180 182 182 178 183 173 192 111 087 057 049 058 176 180 176 169 179 185 183 150 134 150 174 185 181 179 180 173 182 176 178 180 179 179 180 184 178 182 175 180 175 169 174 180 182 179 174 135 080 050 056 148 186 178 182 170 178 176 180 179 174 166 
182 181 179 182 180 176 178 183 178 181 179 181 180 179 184 195 172 191 136 094 073 072 130 160 189 182 184 184 179 181 183 184 182 178 185 180 180 180 180 181 183 179 182 180 179 185 182 182 179 181 182 179 181 182 183 180 184 183 177 181 182 187 188 193 197 190 195 196 194 197 196 191 198 203 197 196 202 178 186 202 202 194 203 191 197 199 195 193 109 184 180 183 181 179 189 171 171 182 176 179 183 180 184 182 184 181 175 180 184 180 185 182 181 202 192 182 183 184 192 157 048 058 044 137 195 181 182 178 180 178 180 182 182 178 183 173 192 111 087 057 049 058 176 180 176 169 179 185 183 150 134 150 174 185 181 179 180 173 182 176 178 180 179 179 180 184 178 182 175 180 175 169 174 180 182 179 174 135 080 050 056 148 186 178 182 170 178 176 180 179 174 166 
183 179 179 178 179 175 177 184 180 183 180 181 185 182 184 195 168 128 071 054 072 058 080 080 157 193 179 186 184 184 181 182 181 184 180 180 184 183 182 180 182 181 182 181 181 183 183 183 180 180 181 179 180 180 186 183 180 182 180 181 183 186 196 196 197 199 202 193 195 194 196 200 193 196 194 194 200 168 197 200 199 202 195 201 200 191 205 173 129 206 185 193 187 183 166 173 183 182 186 182 180 183 181 185 181 185 189 188 184 188 180 192 198 190 185 194 183 192 186 198 122 039 050 060 166 194 183 183 184 180 184 180 181 183 183 181 193 112 078 075 067 058 171 178 179 166 181 178 178 183 166 140 147 165 177 180 178 183 177 185 176 179 181 180 179 175 180 177 185 177 179 176 172 185 176 157 100 056 047 099 176 189 174 181 180 182 179 175 182 175 155 136 
183 179 179 178 179 175 177 184 180 183 180 181 185 182 184 195 168 128 071 054 072 058 080 080 157 193 179 186 184 184 181 182 181 184 180 180 184 183 182 180 182 181 182 181 181 183 183 183 180 180 181 179 180 180 186 183 180 182 180 181 183 186 196 196 197 199 202 193 195 194 196 200 193 196 194 194 200 168 197 200 199 202 195 201 200 191 205 173 129 206 185 193 187 183 166 173 183 182 186 182 180 183 181 185 181 185 189 188 184 188 180 192 198 190 185 194 183 192 186 198 122 039 050 060 166 194 183 183 184 180 184 180 181 183 183 181 193 112 078 075 067 058 171 178 179 166 181 178 178 183 166 140 147 165 177 180 178 183 177 185 176 179 181 180 179 175 180 177 185 177 179 176 172 185 176 157 100 056 047 099 176 189 174 181 180 182 179 175 182 175 155 136 
188 179 184 179 182 183 180 182 181 183 182 180 179 183 177 200 149 079 107 116 158 140 138 104 096 149 165 186 184 184 181 183 183 184 179 184 184 183 182 182 182 183 178 181 183 181 181 182 183 184 183 183 183 179 182 181 182 182 180 180 185 191 196 189 170 180 187 193 195 194 190 195 191 195 193 198 185 163 198 191 191 192 193 190 186 188 204 151 138 197 189 193 181 174 184 184 185 189 185 181 182 185 182 186 181 188 187 184 192 188 199 199 197 192 189 194 191 186 191 191 195 084 047 050 093 192 190 184 186 180 185 181 184 184 183 184 194 129 079 053 064 077 172 182 179 166 182 176 181 181 181 176 148 143 162 168 180 184 177 183 170 183 178 181 180 174 181 182 178 181 179 180 179 165 134 081 047 065 138 191 179 185 177 179 176 176 177 179 175 136 157 184 
188 179 184 179 182 183 180 182 181 183 182 180 179 183 177 200 149 079 107 116 158 140 138 104 096 149 165 186 184 184 181 183 183 184 179 184 184 183 182 182 182 183 178 181 183 181 181 182 183 184 183 183 183 179 182 181 182 182 180 180 185 191 196 189 170 180 187 193 195 194 190 195 191 195 193 198 185 163 198 191 191 192 193 190 186 188 204 151 138 197 189 193 181 174 184 184 185 189 185 181 182 185 182 186 181 188 187 184 192 188 199 199 197 192 189 194 191 186 191 191 195 084 047 050 093 192 190 184 186 180 185 181 184 184 183 184 194 129 079 053 064 077 172 182 179 166 182 176 181 181 181 176 148 143 162 168 180 184 177 183 170 183 178 181 180 174 181 182 178 181 179 180 179 165 134 081 047 065 138 191 179 185 177 179 176 176 177 179 175 136 157 184 
185 172 185 183 185 182 181 180 181 184 183 179 183 186 182 169 120 138 178 179 182 172 155 114 083 152 159 158 162 186 188 185 187 180 185 185 181 184 185 180 175 177 180 184 183 182 181 182 185 184 183 182 184 182 185 182 177 185 181 185 176 172 175 145 092 095 134 200 192 192 187 193 195 196 189 201 173 166 194 188 189 188 188 185 191 185 209 131 148 195 198 181 173 189 180 193 190 181 191 184 185 183 185 183 186 186 185 187 185 202 197 191 193 189 194 190 185 186 184 193 193 168 056 054 040 134 187 183 186 184 182 184 188 181 184 180 194 124 079 053 049 057 155 185 183 164 186 180 182 176 183 180 186 162 142 164 167 181 182 180 187 182 182 183 182 183 173 182 181 178 185 187 157 125 094 048 100 175 189 177 179 180 179 184 175 179 178 173 132 175 175 176 
185 172 185 183 185 182 181 180 181 184 183 179 183 186 182 169 120 138 178 179 182 172 155 114 083 152 159 158 162 186 188 185 187 180 185 185 181 184 185 180 175 177 180 184 183 182 181 182 185 184 183 182 184 182 185 182 177 185 181 185 176 172 175 145 092 095 134 200 192 192 187 193 195 196 189 201 173 166 194 188 189 188 188 185 191 185 209 131 148 195 198 181 173 189 180 193 190 181 191 184 185 183 185 183 186 186 185 187 185 202 197 191 193 189 194 190 185 186 184 193 193 168 056 054 040 134 187 183 186 184 182 184 188 181 184 180 194 124 079 053 049 057 155 185 183 164 186 180 182 176 183 180 186 162 142 164 167 181 182 180 187 182 182 183 182 183 173 182 181 178 185 187 157 125 094 048 100 175 189 177 179 180 179 184 175 179 178 173 132 175 175 176 
189 184 193 185 183 189 184 183 188 186 182 191 184 189 150 158 133 161 189 192 192 165 137 113 129 138 202 183 179 168 165 180 184 187 185 183 187 182 180 182 179 183 184 189 181 186 186 183 187 187 185 187 185 181 185 180 180 180 181 185 186 186 181 174 145 169 198 199 190 189 192 194 185 192 189 200 156 173 190 186 187 187 186 185 192 182 207 119 173 198 178 174 187 185 186 189 188 186 188 186 187 186 185 185 186 190 188 187 208 201 194 188 189 192 189 188 183 187 194 192 190 206 125 042 051 064 170 194 189 186 181 187 186 183 182 182 193 137 079 059 050 045 160 174 181 166 181 181 182 177 180 180 175 188 173 148 155 167 169 190 180 181 180 183 180 175 177 181 176 188 170 133 086 044 095 144 192 182 180 179 182 180 182 178 181 183 159 132 172 181 179 176 
189 184 193 185 183 189 184 183 188 186 182 191 184 189 150 158 133 161 189 192 192 165 137 113 129 138 202 183 179 168 165 180 184 187 185 183 187 182 180 182 179 183 184 189 181 186 186 183 187 187 185 187 185 181 185 180 180 180 181 185 186 186 181 174 145 169 198 199 190 189 192 194 185 192 189 200 156 173 190 186 187 187 186 185 192 182 207 119 173 198 178 174 187 185 186 189 188 186 188 186 187 186 185 185 186 190 188 187 208 201 194 188 189 192 189 188 183 187 194 192 190 206 125 042 051 064 170 194 189 186 181 187 186 183 182 182 193 137 079 059 050 045 160 174 181 166 181 181 182 177 180 180 175 188 173 148 155 167 169 190 180 181 180 183 180 175 177 181 176 188 170 133 086 044 095 144 192 182 180 179 182 180 182 178 181 183 159 132 172 181 179 176 
188 189 190 187 190 189 190 187 185 188 186 187 178 156 170 181 151 189 181 198 204 179 143 119 180 118 178 191 191 192 182 171 172 179 184 189 186 187 182 186 183 183 182 188 182 185 188 184 189 191 191 191 193 188 190 187 186 185 186 185 187 188 181 199 168 178 195 188 193 189 193 190 184 192 191 188 154 197 191 191 189 188 190 193 194 187 203 106 181 176 191 190 190 189 188 188 189 190 189 189 188 190 192 190 188 186 195 206 194 190 188 187 186 190 189 187 184 186 187 187 191 195 192 089 049 046 086 195 189 182 182 186 186 183 182 183 195 130 084 057 051 046 155 190 169 160 186 181 182 181 185 179 180 179 183 183 160 142 166 166 178 184 186 177 181 181 178 190 185 151 108 061 046 100 176 174 174 190 179 179 177 179 182 182 180 139 148 186 181 177 174 177 
188 189 190 187 190 189 190 187 185 188 186 187 178 156 170 181 151 189 181 198 204 179 143 119 180 118 178 191 191 192 182 171 172 179 184 189 186 187 182 186 183 183 182 188 182 185 188 184 189 191 191 191 193 188 190 187 186 185 186 185 187 188 181 199 168 178 195 188 193 189 193 190 184 192 191 188 154 197 191 191 189 188 190 193 194 187 203 106 181 176 191 190 190 189 188 188 189 190 189 189 188 190 192 190 188 186 195 206 194 190 188 187 186 190 189 187 184 186 187 187 191 195 192 089 049 046 086 195 189 182 182 186 186 183 182 183 195 130 084 057 051 046 155 190 169 160 186 181 182 181 185 179 180 179 183 183 160 142 166 166 178 184 186 177 181 181 178 190 185 151 108 061 046 100 176 174 174 190 179 179 177 179 182 182 180 139 148 186 181 177 174 177 
189 189 192 192 191 190 188 189 186 189 192 176 164 183 186 174 170 187 201 176 164 182 152 156 193 144 151 185 187 188 188 188 186 186 177 177 174 182 184 187 180 188 188 187 186 185 182 187 191 185 193 191 195 189 190 189 187 189 190 188 189 194 186 190 174 186 194 195 189 189 192 190 187 195 192 180 170 201 187 182 192 188 195 191 192 195 192 097 178 189 191 190 194 187 191 193 192 192 191 195 191 192 191 189 192 200 205 185 187 183 181 188 190 184 183 182 194 189 186 193 183 191 189 180 053 051 042 118 193 183 186 183 185 182 182 183 196 140 084 063 050 044 152 188 189 162 177 183 181 181 184 178 181 176 183 178 184 180 147 160 175 170 182 187 178 183 190 174 126 074 042 061 149 192 182 180 166 173 186 177 183 178 187 172 131 168 183 175 174 171 182 180 
189 189 192 192 191 190 188 189 186 189 192 176 164 183 186 174 170 187 201 176 164 182 152 156 193 144 151 185 187 188 188 188 186 186 177 177 174 182 184 187 180 188 188 187 186 185 182 187 191 185 193 191 195 189 190 189 187 189 190 188 189 194 186 190 174 186 194 195 189 189 192 190 187 195 192 180 170 201 187 182 192 188 195 191 192 195 192 097 178 189 191 190 194 187 191 193 192 192 191 195 191 192 191 189 192 200 205 185 187 183 181 188 190 184 183 182 194 189 186 193 183 191 189 180 053 051 042 118 193 183 186 183 185 182 182 183 196 140 084 063 050 044 152 188 189 162 177 183 181 181 184 178 181 176 183 178 184 180 147 160 175 170 182 187 178 183 190 174 126 074 042 061 149 192 182 180 166 173 186 177 183 178 187 172 131 168 183 175 174 171 182 180 
185 193 194 192 193 189 187 194 187 188 172 177 190 185 189 162 174 192 163 113 161 169 155 146 193 174 136 180 189 185 183 186 186 186 185 184 183 179 172 175 180 186 185 185 189 186 185 185 187 190 188 192 193 190 190 188 190 189 191 192 190 191 193 188 172 185 192 191 191 191 190 189 196 193 199 165 184 195 192 187 188 191 191 188 190 202 162 127 203 188 196 192 189 189 189 192 189 192 191 196 191 190 187 197 211 198 190 187 190 189 188 188 185 190 185 192 187 183 188 190 185 192 186 205 147 060 052 054 155 192 185 181 182 182 183 184 195 150 081 066 044 046 145 190 188 171 185 168 177 185 180 181 186 182 178 178 185 184 178 163 149 169 169 171 188 185 146 097 055 051 118 182 190 177 185 177 176 161 173 185 172 190 142 142 179 180 177 177 182 179 178 176 
185 193 194 192 193 189 187 194 187 188 172 177 190 185 189 162 174 192 163 113 161 169 155 146 193 174 136 180 189 185 183 186 186 186 185 184 183 179 172 175 180 186 185 185 189 186 185 185 187 190 188 192 193 190 190 188 190 189 191 192 190 191 193 188 172 185 192 191 191 191 190 189 196 193 199 165 184 195 192 187 188 191 191 188 190 202 162 127 203 188 196 192 189 189 189 192 189 192 191 196 191 190 187 197 211 198 190 187 190 189 188 188 185 190 185 192 187 183 188 190 185 192 186 205 147 060 052 054 155 192 185 181 182 182 183 184 195 150 081 066 044 046 145 190 188 171 185 168 177 185 180 181 186 182 178 178 185 184 178 163 149 169 169 171 188 185 146 097 055 051 118 182 190 177 185 177 176 161 173 185 172 190 142 142 179 180 177 177 182 179 178 176 
125 130 157 191 194 192 196 191 186 174 183 194 190 184 191 159 182 195 154 134 207 186 168 141 188 185 149 148 188 184 184 184 183 183 183 186 188 187 182 186 182 176 179 180 184 187 189 187 185 187 188 190 185 185 188 186 189 192 192 190 193 194 189 194 170 191 194 197 192 194 192 194 197 189 199 165 197 190 194 190 196 193 191 192 190 188 144 125 207 192 189 186 196 194 192 194 193 196 191 191 191 190 196 204 192 192 189 193 188 188 192 190 187 188 189 190 190 186 186 183 193 189 190 198 203 117 051 050 060 185 190 187 182 185 186 184 195 154 089 066 046 047 131 188 180 170 181 184 180 172 181 185 181 183 185 185 181 184 186 186 181 152 154 186 160 157 080 051 077 157 190 185 182 183 181 177 179 180 160 182 182 136 154 184 177 180 178 181 179 178 176 177 
125 130 157 191 194 192 196 191 186 174 183 194 190 184 191 159 182 195 154 134 207 186 168 141 188 185 149 148 188 184 184 184 183 183 183 186 188 187 182 186 182 176 179 180 184 187 189 187 185 187 188 190 185 185 188 186 189 192 192 190 193 194 189 194 170 191 194 197 192 194 192 194 197 189 199 165 197 190 194 190 196 193 191 192 190 188 144 125 207 192 189 186 196 194 192 194 193 196 191 191 191 190 196 204 192 192 189 193 188 188 192 190 187 188 189 190 190 186 186 183 193 189 190 198 203 117 051 050 060 185 190 187 182 185 186 184 195 154 089 066 046 047 131 188 180 170 181 184 180 172 181 185 181 183 185 185 181 184 186 186 181 152 154 186 160 157 080 051 077 157 190 185 182 183 181 177 179 180 160 182 182 136 154 184 177 180 178 181 179 178 176 177 
112 103 100 106 174 196 197 183 179 193 188 193 187 193 186 173 181 193 172 166 199 187 170 132 183 186 176 137 172 183 183 183 183 184 183 185 186 185 188 190 181 184 190 184 177 176 178 186 191 193 188 190 194 190 187 190 188 190 189 190 196 193 189 199 170 191 189 194 190 195 196 191 198 191 181 160 195 192 191 195 194 194 193 186 174 204 132 153 204 189 187 194 188 187 189 193 190 189 185 192 188 207 211 191 196 191 189 186 189 193 192 189 192 187 192 193 198 190 196 197 191 194 186 189 189 192 089 051 048 105 196 181 186 181 182 185 196 170 084 071 052 043 135 191 183 167 183 184 179 179 173 176 181 181 182 187 180 184 184 186 187 184 160 129 105 093 131 137 183 187 183 187 176 182 187 179 181 182 174 161 140 171 182 179 181 178 180 179 174 179 179 179 
112 103 100 106 174 196 197 183 179 193 188 193 187 193 186 173 181 193 172 166 199 187 170 132 183 186 176 137 172 183 183 183 183 184 183 185 186 185 188 190 181 184 190 184 177 176 178 186 191 193 188 190 194 190 187 190 188 190 189 190 196 193 189 199 170 191 189 194 190 195 196 191 198 191 181 160 195 192 191 195 194 194 193 186 174 204 132 153 204 189 187 194 188 187 189 193 190 189 185 192 188 207 211 191 196 191 189 186 189 193 192 189 192 187 192 193 198 190 196 197 191 194 186 189 189 192 089 051 048 105 196 181 186 181 182 185 196 170 084 071 052 043 135 191 183 167 183 184 179 179 173 176 181 181 182 187 180 184 184 186 187 184 160 129 105 093 131 137 183 187 183 187 176 182 187 179 181 182 174 161 140 171 182 179 181 178 180 179 174 179 179 179 
077 083 073 072 096 146 162 181 193 191 189 187 192 195 176 172 186 190 155 178 198 203 166 132 170 189 182 156 156 186 185 183 184 183 182 183 184 184 181 184 182 185 182 186 187 185 184 178 177 176 185 189 186 182 186 188 192 188 189 189 187 189 188 193 166 189 193 191 188 190 188 190 183 197 165 180 189 187 187 192 195 195 175 178 190 204 114 167 195 188 187 186 187 184 190 190 183 188 185 194 208 198 188 191 186 186 187 192 189 188 189 185 186 182 187 196 135 081 114 169 234 235 230 233 234 242 213 092 065 057 172 236 226 231 227 224 226 208 098 074 054 055 158 230 218 205 206 186 183 182 179 171 168 180 182 179 181 182 181 186 189 164 121 060 079 089 157 180 177 184 186 184 186 185 176 187 181 187 159 140 168 184 180 180 177 181 179 175 177 177 177 177 
077 083 073 072 096 146 162 181 193 191 189 187 192 195 176 172 186 190 155 178 198 203 166 132 170 189 182 156 156 186 185 183 184 183 182 183 184 184 181 184 182 185 182 186 187 185 184 178 177 176 185 189 186 182 186 188 192 188 189 189 187 189 188 193 166 189 193 191 188 190 188 190 183 197 165 180 189 187 187 192 195 195 175 178 190 204 114 167 195 188 187 186 187 184 190 190 183 188 185 194 208 198 188 191 186 186 187 192 189 188 189 185 186 182 187 196 135 081 114 169 234 235 230 233 234 242 213 092 065 057 172 236 226 231 227 224 226 208 098 074 054 055 158 230 218 205 206 186 183 182 179 171 168 180 182 179 181 182 181 186 189 164 121 060 079 089 157 180 177 184 186 184 186 185 176 187 181 187 159 140 168 184 180 180 177 181 179 175 177 177 177 177 
073 138 067 071 079 136 194 189 187 183 190 186 183 198 178 174 169 170 156 186 184 216 178 132 165 190 188 170 144 164 189 183 182 183 181 183 184 184 181 184 181 184 181 184 180 187 180 188 182 179 179 168 173 184 183 186 186 188 184 183 189 192 186 188 161 185 184 189 188 193 188 190 186 197 156 184 185 184 186 190 190 172 177 195 183 190 112 183 185 185 184 186 187 193 179 186 186 184 197 216 198 185 184 184 184 188 185 183 190 190 186 190 186 190 189 242 146 067 054 066 126 214 247 233 242 240 247 173 061 066 094 227 235 239 240 232 239 212 098 074 057 055 161 248 238 232 237 212 186 181 185 188 183 177 179 187 184 183 191 184 148 088 052 053 127 172 149 181 185 175 182 186 178 188 187 177 192 153 149 194 162 170 179 181 182 183 179 181 178 177 177 179 
073 138 067 071 079 136 194 189 187 183 190 186 183 198 178 174 169 170 156 186 184 216 178 132 165 190 188 170 144 164 189 183 182 183 181 183 184 184 181 184 181 184 181 184 180 187 180 188 182 179 179 168 173 184 183 186 186 188 184 183 189 192 186 188 161 185 184 189 188 193 188 190 186 197 156 184 185 184 186 190 190 172 177 195 183 190 112 183 185 185 184 186 187 193 179 186 186 184 197 216 198 185 184 184 184 188 185 183 190 190 186 190 186 190 189 242 146 067 054 066 126 214 247 233 242 240 247 173 061 066 094 227 235 239 240 232 239 212 098 074 057 055 161 248 238 232 237 212 186 181 185 188 183 177 179 187 184 183 191 184 148 088 052 053 127 172 149 181 185 175 182 186 178 188 187 177 192 153 149 194 162 170 179 181 182 183 179 181 178 177 177 179 
094 167 088 092 095 163 191 187 185 186 187 183 183 191 165 177 165 173 166 186 184 213 199 142 159 187 191 185 148 158 182 184 184 184 183 184 184 184 182 185 182 186 183 185 186 183 189 180 180 178 183 188 180 183 172 171 168 176 187 188 185 189 183 184 163 192 182 188 183 182 190 183 188 176 161 194 185 184 186 180 165 184 184 188 184 183 107 191 180 187 182 185 182 181 182 181 187 210 202 186 184 183 184 190 181 185 184 185 186 186 183 182 181 191 233 244 243 218 121 067 065 099 218 241 230 231 232 232 125 066 062 133 233 229 228 231 237 205 102 070 055 051 153 237 226 219 231 225 194 184 184 181 185 184 176 174 184 188 162 115 064 043 088 176 189 184 184 151 163 187 177 171 190 181 191 176 140 174 184 184 182 166 173 179 175 179 177 179 180 181 181 181 
094 167 088 092 095 163 191 187 185 186 187 183 183 191 165 177 165 173 166 186 184 213 199 142 159 187 191 185 148 158 182 184 184 184 183 184 184 184 182 185 182 186 183 185 186 183 189 180 180 178 183 188 180 183 172 171 168 176 187 188 185 189 183 184 163 192 182 188 183 182 190 183 188 176 161 194 185 184 186 180 165 184 184 188 184 183 107 191 180 187 182 185 182 181 182 181 187 210 202 186 184 183 184 190 181 185 184 185 186 186 183 182 181 191 233 244 243 218 121 067 065 099 218 241 230 231 232 232 125 066 062 133 233 229 228 231 237 205 102 070 055 051 153 237 226 219 231 225 194 184 184 181 185 184 176 174 184 188 162 115 064 043 088 176 189 184 184 151 163 187 177 171 190 181 191 176 140 174 184 184 182 166 173 179 175 179 177 179 180 181 181 181 
101 156 080 096 106 173 191 184 189 183 188 187 182 187 155 183 177 172 176 187 183 205 207 152 150 181 182 192 161 161 161 189 181 185 181 184 182 183 182 182 182 182 181 180 183 182 185 182 185 181 182 184 184 184 184 183 176 171 160 163 165 175 175 181 155 182 186 185 188 183 183 187 190 166 171 186 186 182 169 177 186 186 185 186 186 165 116 200 179 185 184 183 183 181 187 204 204 189 188 182 183 187 183 179 188 185 194 185 188 183 184 189 185 192 240 240 247 254 201 072 075 055 163 220 209 216 222 228 218 085 058 054 162 220 216 221 221 201 098 069 053 056 148 241 230 224 221 223 201 198 190 183 186 185 186 194 174 143 082 045 059 147 187 187 183 187 185 190 169 146 144 152 160 152 137 154 188 184 186 180 181 182 167 177 185 181 179 181 181 181 181 181 
101 156 080 096 106 173 191 184 189 183 188 187 182 187 155 183 177 172 176 187 183 205 207 152 150 181 182 192 161 161 161 189 181 185 181 184 182 183 182 182 182 182 181 180 183 182 185 182 185 181 182 184 184 184 184 183 176 171 160 163 165 175 175 181 155 182 186 185 188 183 183 187 190 166 171 186 186 182 169 177 186 186 185 186 186 165 116 200 179 185 184 183 183 181 187 204 204 189 188 182 183 187 183 179 188 185 194 185 188 183 184 189 185 192 240 240 247 254 201 072 075 055 163 220 209 216 222 228 218 085 058 054 162 220 216 221 221 201 098 069 053 056 148 241 230 224 221 223 201 198 190 183 186 185 186 194 174 143 082 045 059 147 187 187 183 187 185 190 169 146 144 152 160 152 137 154 188 184 186 180 181 182 167 177 185 181 179 181 181 181 181 181 
099 146 084 092 109 173 194 182 183 187 183 184 180 187 159 181 177 161 176 184 181 194 211 156 150 179 183 189 179 161 158 173 189 178 192 183 185 183 185 185 185 184 183 183 186 183 186 182 187 184 184 184 183 184 185 185 183 185 189 187 182 184 161 079 081 075 162 192 185 181 190 183 193 159 181 187 186 171 174 185 180 184 187 179 192 145 132 199 181 185 182 185 180 189 184 167 173 188 177 193 181 182 188 183 159 196 190 182 185 187 183 187 182 208 243 227 221 212 176 099 076 051 125 188 177 177 185 177 180 169 066 056 056 128 175 165 173 151 075 077 051 042 094 169 149 148 153 158 158 152 169 193 190 192 195 165 103 068 065 097 179 189 184 186 190 185 181 187 187 162 082 075 087 098 070 092 167 189 180 184 180 184 177 166 179 180 181 181 180 183 177 183 
099 146 084 092 109 173 194 182 183 187 183 184 180 187 159 181 177 161 176 184 181 194 211 156 150 179 183 189 179 161 158 173 189 178 192 183 185 183 185 185 185 184 183 183 186 183 186 182 187 184 184 184 183 184 185 185 183 185 189 187 182 184 161 079 081 075 162 192 185 181 190 183 193 159 181 187 186 171 174 185 180 184 187 179 192 145 132 199 181 185 182 185 180 189 184 167 173 188 177 193 181 182 188 183 159 196 190 182 185 187 183 187 182 208 243 227 221 212 176 099 076 051 125 188 177 177 185 177 180 169 066 056 056 128 175 165 173 151 075 077 051 042 094 169 149 148 153 158 158 152 169 193 190 192 195 165 103 068 065 097 179 189 184 186 190 185 181 187 187 162 082 075 087 098 070 092 167 189 180 184 180 184 177 166 179 180 181 181 180 183 177 183 
095 111 068 076 094 171 185 189 186 189 185 188 195 163 181 184 174 164 189 182 186 190 214 164 152 167 191 179 191 164 166 162 191 189 187 183 185 183 184 184 184 183 182 183 187 183 186 184 188 184 183 185 186 186 186 185 188 178 181 165 173 169 168 068 066 062 154 189 184 186 185 184 186 155 189 177 168 178 186 185 188 186 185 183 195 130 150 188 187 183 185 177 191 180 178 179 185 181 182 183 179 189 189 157 166 198 182 186 185 185 185 187 189 190 202 205 219 239 208 106 102 055 140 235 210 214 218 219 217 233 145 054 060 089 206 211 222 181 087 068 046 047 111 219 200 196 206 206 200 195 192 189 196 176 141 074 046 061 154 184 175 184 183 183 185 183 188 182 188 188 171 103 076 067 048 076 140 183 181 182 180 182 180 175 161 185 180 182 182 181 180 181 
095 111 068 076 094 171 185 189 186 189 185 188 195 163 181 184 174 164 189 182 186 190 214 164 152 167 191 179 191 164 166 162 191 189 187 183 185 183 184 184 184 183 182 183 187 183 186 184 188 184 183 185 186 186 186 185 188 178 181 165 173 169 168 068 066 062 154 189 184 186 185 184 186 155 189 177 168 178 186 185 188 186 185 183 195 130 150 188 187 183 185 177 191 180 178 179 185 181 182 183 179 189 189 157 166 198 182 186 185 185 185 187 189 190 202 205 219 239 208 106 102 055 140 235 210 214 218 219 217 233 145 054 060 089 206 211 222 181 087 068 046 047 111 219 200 196 206 206 200 195 192 189 196 176 141 074 046 061 154 184 175 184 183 183 185 183 188 182 188 188 171 103 076 067 048 076 140 183 181 182 180 182 180 175 161 185 180 182 182 181 180 181 
071 066 063 067 054 069 122 182 173 161 165 157 173 143 193 181 161 163 188 185 187 185 215 168 156 162 188 184 189 176 157 166 165 190 179 186 186 184 185 185 185 184 184 186 187 183 185 183 185 181 179 177 179 174 170 173 170 178 182 183 189 193 128 062 155 102 185 187 186 184 186 188 165 174 176 171 178 189 183 184 181 183 187 176 198 118 172 181 179 184 178 195 223 185 192 183 181 185 182 187 192 180 161 180 189 191 185 183 189 186 189 188 190 211 230 230 232 241 223 125 088 063 130 242 222 227 222 221 224 224 218 094 062 056 128 237 229 193 094 071 046 049 102 226 209 207 200 210 196 192 190 190 164 102 059 045 107 180 189 190 178 176 180 181 185 182 185 185 182 188 156 144 173 149 143 152 150 129 187 184 184 181 178 187 180 167 178 183 183 181 179 181 
071 066 063 067 054 069 122 182 173 161 165 157 173 143 193 181 161 163 188 185 187 185 215 168 156 162 188 184 189 176 157 166 165 190 179 186 186 184 185 185 185 184 184 186 187 183 185 183 185 181 179 177 179 174 170 173 170 178 182 183 189 193 128 062 155 102 185 187 186 184 186 188 165 174 176 171 178 189 183 184 181 183 187 176 198 118 172 181 179 184 178 195 223 185 192 183 181 185 182 187 192 180 161 180 189 191 185 183 189 186 189 188 190 211 230 230 232 241 223 125 088 063 130 242 222 227 222 221 224 224 218 094 062 056 128 237 229 193 094 071 046 049 102 226 209 207 200 210 196 192 190 190 164 102 059 045 107 180 189 190 178 176 180 181 185 182 185 185 182 188 156 144 173 149 143 152 150 129 187 184 184 181 178 187 180 167 178 183 183 181 179 181 
069 068 062 055 064 069 136 185 168 162 161 157 151 162 195 185 167 179 195 187 183 189 213 177 169 158 188 183 188 194 153 174 155 183 186 185 183 189 188 186 185 183 181 179 173 178 170 171 167 172 169 172 177 180 185 188 189 182 188 188 190 149 067 157 116 085 121 189 186 187 179 193 156 169 171 181 182 187 183 185 184 186 186 186 193 112 186 181 188 183 204 217 195 182 186 204 203 209 211 200 176 199 217 200 194 186 185 185 191 186 187 183 186 194 230 234 232 247 226 115 096 062 139 252 231 229 224 228 225 225 234 183 060 064 065 196 238 200 093 071 045 045 098 226 212 209 209 208 203 193 188 127 074 044 067 150 194 191 185 189 192 181 175 173 179 187 184 183 184 147 160 185 181 186 186 169 162 150 136 169 188 182 182 181 183 163 172 185 175 180 184 182 
069 068 062 055 064 069 136 185 168 162 161 157 151 162 195 185 167 179 195 187 183 189 213 177 169 158 188 183 188 194 153 174 155 183 186 185 183 189 188 186 185 183 181 179 173 178 170 171 167 172 169 172 177 180 185 188 189 182 188 188 190 149 067 157 116 085 121 189 186 187 179 193 156 169 171 181 182 187 183 185 184 186 186 186 193 112 186 181 188 183 204 217 195 182 186 204 203 209 211 200 176 199 217 200 194 186 185 185 191 186 187 183 186 194 230 234 232 247 226 115 096 062 139 252 231 229 224 228 225 225 234 183 060 064 065 196 238 200 093 071 045 045 098 226 212 209 209 208 203 193 188 127 074 044 067 150 194 191 185 189 192 181 175 173 179 187 184 183 184 147 160 185 181 186 186 169 162 150 136 169 188 182 182 181 183 163 172 185 175 180 184 182 
073 066 060 064 071 068 149 186 175 169 165 130 082 082 139 146 149 155 174 178 174 175 201 180 162 143 175 174 178 177 164 148 155 157 178 167 170 166 167 169 172 175 175 178 181 185 190 189 189 186 190 189 182 182 186 184 186 186 188 187 157 079 156 188 088 076 097 171 190 188 184 182 151 183 183 184 182 182 185 184 186 187 183 186 180 113 189 179 194 218 182 186 190 189 192 212 220 214 177 187 227 227 224 222 188 192 183 193 183 192 183 204 235 216 213 233 241 252 226 107 089 057 147 249 229 227 220 220 217 228 221 228 121 049 065 094 245 115 083 059 053 091 155 206 194 196 190 206 201 165 085 059 052 114 185 197 187 186 190 190 180 186 187 181 178 171 187 173 140 176 187 186 186 180 174 181 187 186 149 121 134 182 188 186 180 187 178 169 186 186 180 182 
073 066 060 064 071 068 149 186 175 169 165 130 082 082 139 146 149 155 174 178 174 175 201 180 162 143 175 174 178 177 164 148 155 157 178 167 170 166 167 169 172 175 175 178 181 185 190 189 189 186 190 189 182 182 186 184 186 186 188 187 157 079 156 188 088 076 097 171 190 188 184 182 151 183 183 184 182 182 185 184 186 187 183 186 180 113 189 179 194 218 182 186 190 189 192 212 220 214 177 187 227 227 224 222 188 192 183 193 183 192 183 204 235 216 213 233 241 252 226 107 089 057 147 249 229 227 220 220 217 228 221 228 121 049 065 094 245 115 083 059 053 091 155 206 194 196 190 206 201 165 085 059 052 114 185 197 187 186 190 190 180 186 187 181 178 171 187 173 140 176 187 186 186 180 174 181 187 186 149 121 134 182 188 186 180 187 178 169 186 186 180 182 
072 074 066 063 066 068 154 187 183 162 162 082 134 054 110 178 165 165 157 186 181 183 203 191 178 147 171 185 186 176 194 157 179 162 187 187 190 189 190 184 188 190 186 185 185 183 182 185 183 187 186 187 184 187 183 186 186 187 192 164 082 139 203 137 163 164 195 159 172 187 186 160 168 190 186 185 182 183 183 189 181 181 189 189 174 116 202 182 214 200 183 185 191 191 184 202 221 215 218 226 226 229 229 221 189 190 192 196 193 185 169 193 202 186 173 179 172 173 150 102 089 041 108 161 150 158 152 147 126 129 132 129 105 040 044 033 124 151 070 105 126 177 216 244 173 132 127 167 105 064 045 055 179 209 196 197 193 200 201 194 187 192 219 192 186 190 141 153 186 185 180 185 185 184 188 185 188 182 186 173 171 117 134 164 187 179 182 174 176 182 180 189 
072 074 066 063 066 068 154 187 183 162 162 082 134 054 110 178 165 165 157 186 181 183 203 191 178 147 171 185 186 176 194 157 179 162 187 187 190 189 190 184 188 190 186 185 185 183 182 185 183 187 186 187 184 187 183 186 186 187 192 164 082 139 203 137 163 164 195 159 172 187 186 160 168 190 186 185 182 183 183 189 181 181 189 189 174 116 202 182 214 200 183 185 191 191 184 202 221 215 218 226 226 229 229 221 189 190 192 196 193 185 169 193 202 186 173 179 172 173 150 102 089 041 108 161 150 158 152 147 126 129 132 129 105 040 044 033 124 151 070 105 126 177 216 244 173 132 127 167 105 064 045 055 179 209 196 197 193 200 201 194 187 192 219 192 186 190 141 153 186 185 180 185 185 184 188 185 188 182 186 173 171 117 134 164 187 179 182 174 176 182 180 189 
072 074 066 063 062 066 141 168 154 139 136 105 200 118 069 156 163 190 178 179 189 186 195 202 174 155 168 188 187 181 188 177 172 168 166 196 184 186 183 188 185 186 187 183 187 187 186 188 183 184 183 186 185 188 186 186 187 190 172 092 126 204 172 150 172 177 193 182 162 180 174 170 182 188 188 187 187 185 183 188 189 188 187 195 151 141 199 167 187 185 187 184 188 195 153 204 229 227 226 226 228 233 224 220 197 189 171 160 128 122 120 113 107 111 105 096 108 102 104 107 075 048 053 111 100 172 191 143 092 099 107 112 105 112 087 043 040 076 051 098 107 120 208 205 124 093 067 047 029 049 059 075 104 093 107 117 124 140 137 147 165 165 193 179 190 150 153 174 163 184 189 186 186 185 187 184 183 184 189 181 188 166 159 131 167 187 182 187 166 180 181 183 
072 074 066 063 062 066 141 168 154 139 136 105 200 118 069 156 163 190 178 179 189 186 195 202 174 155 168 188 187 181 188 177 172 168 166 196 184 186 183 188 185 186 187 183 187 187 186 188 183 184 183 186 185 188 186 186 187 190 172 092 126 204 172 150 172 177 193 182 162 180 174 170 182 188 188 187 187 185 183 188 189 188 187 195 151 141 199 167 187 185 187 184 188 195 153 204 229 227 226 226 228 233 224 220 197 189 171 160 128 122 120 113 107 111 105 096 108 102 104 107 075 048 053 111 100 172 191 143 092 099 107 112 105 112 087 043 040 076 051 098 107 120 208 205 124 093 067 047 029 049 059 075 104 093 107 117 124 140 137 147 165 165 193 179 190 150 153 174 163 184 189 186 186 185 187 184 183 184 189 181 188 166 159 131 167 187 182 187 166 180 181 183 
060 063 059 062 060 057 063 056 061 064 099 188 203 129 067 088 182 195 188 186 180 183 192 203 180 166 161 191 186 187 183 194 158 186 154 184 188 187 191 187 188 187 187 188 185 184 184 187 184 188 191 186 183 186 186 190 185 187 090 120 192 187 166 171 165 184 196 171 162 158 185 167 187 185 188 189 186 181 184 185 191 186 182 170 112 146 176 194 184 184 185 190 191 192 183 216 229 228 223 207 185 175 153 153 153 159 170 191 158 184 155 141 140 138 138 134 129 129 125 105 075 042 087 144 120 159 122 103 113 130 156 160 153 144 145 067 034 061 095 057 088 128 213 198 136 063 075 053 098 141 132 137 135 143 137 132 132 131 135 124 126 118 116 123 114 106 096 168 180 176 174 185 189 185 188 188 181 184 185 177 186 182 186 182 152 153 177 191 176 171 176 187 
060 063 059 062 060 057 063 056 061 064 099 188 203 129 067 088 182 195 188 186 180 183 192 203 180 166 161 191 186 187 183 194 158 186 154 184 188 187 191 187 188 187 187 188 185 184 184 187 184 188 191 186 183 186 186 190 185 187 090 120 192 187 166 171 165 184 196 171 162 158 185 167 187 185 188 189 186 181 184 185 191 186 182 170 112 146 176 194 184 184 185 190 191 192 183 216 229 228 223 207 185 175 153 153 153 159 170 191 158 184 155 141 140 138 138 134 129 129 125 105 075 042 087 144 120 159 122 103 113 130 156 160 153 144 145 067 034 061 095 057 088 128 213 198 136 063 075 053 098 141 132 137 135 143 137 132 132 131 135 124 126 118 116 123 114 106 096 168 180 176 174 185 189 185 188 188 181 184 185 177 186 182 186 182 152 153 177 191 176 171 176 187 
063 062 057 062 056 055 054 066 106 160 153 200 192 120 072 055 156 191 192 185 190 184 178 214 183 169 152 192 186 192 194 192 181 166 185 159 196 183 190 184 185 188 182 186 188 185 183 185 184 189 189 185 190 189 186 189 200 149 103 194 193 163 189 166 177 185 186 165 182 166 162 180 191 177 190 187 188 183 190 183 201 198 190 153 097 136 183 194 194 196 198 201 198 193 184 154 175 146 152 156 167 181 187 198 205 216 223 235 178 220 163 148 147 145 141 139 137 134 125 098 073 041 055 072 110 129 117 091 119 141 117 110 107 108 097 066 033 048 045 104 083 096 137 149 087 036 042 076 127 131 127 132 136 140 141 147 143 154 147 152 160 154 160 151 150 132 123 185 189 184 183 181 167 185 192 180 189 183 181 188 186 183 185 183 187 177 153 153 181 191 108 146 
063 062 057 062 056 055 054 066 106 160 153 200 192 120 072 055 156 191 192 185 190 184 178 214 183 169 152 192 186 192 194 192 181 166 185 159 196 183 190 184 185 188 182 186 188 185 183 185 184 189 189 185 190 189 186 189 200 149 103 194 193 163 189 166 177 185 186 165 182 166 162 180 191 177 190 187 188 183 190 183 201 198 190 153 097 136 183 194 194 196 198 201 198 193 184 154 175 146 152 156 167 181 187 198 205 216 223 235 178 220 163 148 147 145 141 139 137 134 125 098 073 041 055 072 110 129 117 091 119 141 117 110 107 108 097 066 033 048 045 104 083 096 137 149 087 036 042 076 127 131 127 132 136 140 141 147 143 154 147 152 160 154 160 151 150 132 123 185 189 184 183 181 167 185 192 180 189 183 181 188 186 183 185 183 187 177 153 153 181 191 108 146 
145 149 145 141 129 124 122 147 196 182 185 194 199 137 169 092 086 191 191 188 184 191 180 198 188 166 157 184 186 188 190 184 191 151 191 157 182 189 186 186 186 188 187 190 186 188 187 183 186 185 187 188 188 186 192 191 182 119 184 195 186 166 200 161 183 151 151 188 191 187 150 179 186 194 185 185 189 191 211 209 209 216 215 231 132 218 217 221 208 198 188 166 149 145 159 166 182 191 199 209 213 224 228 228 234 227 229 228 183 215 160 153 149 147 146 143 139 134 122 092 076 045 035 070 082 112 093 077 124 147 109 076 081 074 064 077 046 036 026 072 049 025 034 031 032 026 037 078 101 103 099 107 107 109 104 107 106 107 111 105 104 114 089 133 146 129 121 186 186 191 188 193 185 175 178 181 188 180 186 188 188 185 182 186 187 186 187 177 153 157 153 153 
145 149 145 141 129 124 122 147 196 182 185 194 199 137 169 092 086 191 191 188 184 191 180 198 188 166 157 184 186 188 190 184 191 151 191 157 182 189 186 186 186 188 187 190 186 188 187 183 186 185 187 188 188 186 192 191 182 119 184 195 186 166 200 161 183 151 151 188 191 187 150 179 186 194 185 185 189 191 211 209 209 216 215 231 132 218 217 221 208 198 188 166 149 145 159 166 182 191 199 209 213 224 228 228 234 227 229 228 183 215 160 153 149 147 146 143 139 134 122 092 076 045 035 070 082 112 093 077 124 147 109 076 081 074 064 077 046 036 026 072 049 025 034 031 032 026 037 078 101 103 099 107 107 109 104 107 106 107 111 105 104 114 089 133 146 129 121 186 186 191 188 193 185 175 178 181 188 180 186 188 188 185 182 186 187 186 187 177 153 157 153 153 
172 172 167 167 162 165 149 189 191 179 189 185 195 160 197 142 074 122 200 184 190 193 190 192 197 155 147 183 191 186 185 187 193 169 171 180 162 188 187 191 191 186 189 186 186 187 188 187 187 185 192 183 188 186 195 189 112 173 190 198 167 184 198 146 135 161 188 191 188 197 161 155 197 185 191 191 188 164 229 172 172 173 189 199 118 178 155 152 150 156 167 182 195 207 222 222 221 229 220 227 217 227 225 226 229 230 227 231 176 197 165 155 152 149 146 143 138 135 126 097 071 044 043 107 095 076 070 085 130 152 117 111 105 103 091 083 059 025 031 035 038 029 025 024 030 032 036 093 123 125 129 133 129 136 135 137 139 143 133 136 135 135 095 145 143 129 116 190 186 188 179 187 188 186 180 168 177 187 192 180 184 187 186 189 189 186 188 183 192 169 129 089 
172 172 167 167 162 165 149 189 191 179 189 185 195 160 197 142 074 122 200 184 190 193 190 192 197 155 147 183 191 186 185 187 193 169 171 180 162 188 187 191 191 186 189 186 186 187 188 187 187 185 192 183 188 186 195 189 112 173 190 198 167 184 198 146 135 161 188 191 188 197 161 155 197 185 191 191 188 164 229 172 172 173 189 199 118 178 155 152 150 156 167 182 195 207 222 222 221 229 220 227 217 227 225 226 229 230 227 231 176 197 165 155 152 149 146 143 138 135 126 097 071 044 043 107 095 076 070 085 130 152 117 111 105 103 091 083 059 025 031 035 038 029 025 024 030 032 036 093 123 125 129 133 129 136 135 137 139 143 133 136 135 135 095 145 143 129 116 190 186 188 179 187 188 186 180 168 177 187 192 180 184 187 186 189 189 186 188 183 192 169 129 089 
182 180 178 176 153 151 140 187 188 181 187 188 190 155 187 177 134 069 178 196 190 190 186 195 217 167 140 167 191 189 187 193 182 187 157 187 157 184 192 185 187 193 193 188 192 186 186 188 187 184 189 179 193 186 194 110 164 194 199 176 169 193 184 139 176 177 191 193 186 188 165 173 170 197 183 192 177 117 227 172 163 108 090 098 094 165 166 197 210 212 218 229 226 220 222 213 215 222 219 221 212 225 225 228 226 225 213 214 189 220 173 154 150 147 144 144 139 138 129 093 070 047 049 120 113 106 105 102 140 150 129 117 120 109 111 099 072 067 033 029 033 027 017 025 031 034 033 083 124 118 124 131 126 128 130 126 132 133 125 140 140 149 105 141 145 128 118 186 187 187 186 190 185 185 185 189 182 175 178 186 187 189 189 192 189 183 186 190 190 188 186 135 
182 180 178 176 153 151 140 187 188 181 187 188 190 155 187 177 134 069 178 196 190 190 186 195 217 167 140 167 191 189 187 193 182 187 157 187 157 184 192 185 187 193 193 188 192 186 186 188 187 184 189 179 193 186 194 110 164 194 199 176 169 193 184 139 176 177 191 193 186 188 165 173 170 197 183 192 177 117 227 172 163 108 090 098 094 165 166 197 210 212 218 229 226 220 222 213 215 222 219 221 212 225 225 228 226 225 213 214 189 220 173 154 150 147 144 144 139 138 129 093 070 047 049 120 113 106 105 102 140 150 129 117 120 109 111 099 072 067 033 029 033 027 017 025 031 034 033 083 124 118 124 131 126 128 130 126 132 133 125 140 140 149 105 141 145 128 118 186 187 187 186 190 185 185 185 189 182 175 178 186 187 189 189 192 189 183 186 190 190 188 186 135 
186 178 178 178 135 101 110 195 174 188 188 189 183 161 178 182 196 112 102 195 185 195 190 192 209 192 135 164 191 181 186 186 184 192 170 165 184 159 192 183 193 187 188 191 191 190 191 191 189 188 189 196 186 194 130 145 197 184 191 157 193 170 172 162 179 189 191 183 190 169 181 191 158 180 193 166 148 126 232 169 168 116 099 096 167 226 219 224 228 229 229 220 217 223 227 225 225 226 223 226 222 227 232 224 211 207 218 239 196 224 165 153 149 149 147 143 136 137 128 086 067 049 046 126 133 131 123 133 145 150 131 123 122 124 114 102 111 096 043 036 042 022 023 052 046 087 105 115 125 139 134 140 146 141 144 145 146 148 140 150 145 150 110 144 151 128 119 189 185 184 185 189 188 189 184 183 187 189 176 173 181 185 188 189 186 191 189 184 189 188 189 193 
186 178 178 178 135 101 110 195 174 188 188 189 183 161 178 182 196 112 102 195 185 195 190 192 209 192 135 164 191 181 186 186 184 192 170 165 184 159 192 183 193 187 188 191 191 190 191 191 189 188 189 196 186 194 130 145 197 184 191 157 193 170 172 162 179 189 191 183 190 169 181 191 158 180 193 166 148 126 232 169 168 116 099 096 167 226 219 224 228 229 229 220 217 223 227 225 225 226 223 226 222 227 232 224 211 207 218 239 196 224 165 153 149 149 147 143 136 137 128 086 067 049 046 126 133 131 123 133 145 150 131 123 122 124 114 102 111 096 043 036 042 022 023 052 046 087 105 115 125 139 134 140 146 141 144 145 146 148 140 150 145 150 110 144 151 128 119 189 185 184 185 189 188 189 184 183 187 189 176 173 181 185 188 189 186 191 189 184 189 188 189 193 
184 188 177 180 139 074 096 189 173 192 188 192 186 160 165 185 199 168 082 150 198 185 192 188 204 205 154 136 188 190 190 190 189 184 195 149 193 161 179 188 188 187 191 188 187 185 184 184 186 189 187 185 201 137 136 190 187 196 167 166 172 182 188 156 180 181 193 191 192 166 182 190 188 156 186 157 139 109 213 184 174 155 122 108 200 239 236 229 229 222 210 228 220 230 225 229 229 224 223 228 227 220 213 210 220 234 226 233 195 217 169 144 148 148 147 142 139 135 130 093 070 043 041 126 134 135 133 139 146 147 129 118 132 126 118 113 111 105 053 043 056 019 017 051 050 105 123 128 127 137 144 146 156 145 153 153 154 150 144 150 146 151 114 144 150 130 119 189 186 189 185 187 187 185 184 187 189 183 190 189 183 131 131 190 185 184 189 188 189 185 189 187 
184 188 177 180 139 074 096 189 173 192 188 192 186 160 165 185 199 168 082 150 198 185 192 188 204 205 154 136 188 190 190 190 189 184 195 149 193 161 179 188 188 187 191 188 187 185 184 184 186 189 187 185 201 137 136 190 187 196 167 166 172 182 188 156 180 181 193 191 192 166 182 190 188 156 186 157 139 109 213 184 174 155 122 108 200 239 236 229 229 222 210 228 220 230 225 229 229 224 223 228 227 220 213 210 220 234 226 233 195 217 169 144 148 148 147 142 139 135 130 093 070 043 041 126 134 135 133 139 146 147 129 118 132 126 118 113 111 105 053 043 056 019 017 051 050 105 123 128 127 137 144 146 156 145 153 153 154 150 144 150 146 151 114 144 150 130 119 189 186 189 185 187 187 185 184 187 189 183 190 189 183 131 131 190 185 184 189 188 189 185 189 187 
187 182 182 182 132 075 098 181 185 192 186 193 184 167 165 189 194 196 135 092 184 196 186 191 199 212 164 118 192 186 187 190 188 188 190 177 167 187 159 188 190 186 187 187 186 188 187 185 187 192 189 201 148 119 189 189 194 187 146 164 187 189 193 158 174 180 194 189 182 162 197 187 195 174 159 118 084 063 115 183 169 154 116 100 211 196 178 154 135 125 151 236 219 228 226 231 229 229 228 223 215 208 217 225 227 227 228 233 195 221 163 151 150 147 147 144 140 136 129 071 061 051 040 131 143 139 138 137 150 153 141 124 131 130 129 125 118 110 061 039 058 028 018 062 054 112 129 123 135 142 150 115 085 075 085 105 145 154 151 152 144 155 109 133 146 138 120 187 182 186 185 186 190 188 189 183 185 189 188 184 193 148 112 177 182 187 186 189 186 188 187 190 
187 182 182 182 132 075 098 181 185 192 186 193 184 167 165 189 194 196 135 092 184 196 186 191 199 212 164 118 192 186 187 190 188 188 190 177 167 187 159 188 190 186 187 187 186 188 187 185 187 192 189 201 148 119 189 189 194 187 146 164 187 189 193 158 174 180 194 189 182 162 197 187 195 174 159 118 084 063 115 183 169 154 116 100 211 196 178 154 135 125 151 236 219 228 226 231 229 229 228 223 215 208 217 225 227 227 228 233 195 221 163 151 150 147 147 144 140 136 129 071 061 051 040 131 143 139 138 137 150 153 141 124 131 130 129 125 118 110 061 039 058 028 018 062 054 112 129 123 135 142 150 115 085 075 085 105 145 154 151 152 144 155 109 133 146 138 120 187 182 186 185 186 190 188 189 183 185 189 188 184 193 148 112 177 182 187 186 189 186 188 187 190 
188 184 179 180 130 078 104 182 194 187 188 193 183 151 166 196 184 193 185 086 124 201 196 192 194 211 171 115 179 189 192 186 190 190 194 188 155 198 167 171 194 185 189 189 189 187 191 191 187 189 200 152 112 189 195 190 191 164 163 192 194 188 187 158 178 188 190 194 174 170 195 188 187 186 154 098 078 054 076 158 159 136 111 110 215 105 102 103 101 121 197 245 215 234 231 238 233 221 215 197 218 228 228 227 228 224 225 232 196 217 165 146 147 146 145 142 140 137 136 084 057 047 042 132 140 140 142 146 149 150 141 126 137 132 131 129 125 118 061 041 051 032 023 061 058 115 130 116 132 156 130 050 052 040 041 042 065 132 163 152 151 157 112 136 153 134 121 186 183 189 186 186 188 186 186 185 186 191 187 189 189 182 137 195 177 174 181 195 188 187 187 195 
188 184 179 180 130 078 104 182 194 187 188 193 183 151 166 196 184 193 185 086 124 201 196 192 194 211 171 115 179 189 192 186 190 190 194 188 155 198 167 171 194 185 189 189 189 187 191 191 187 189 200 152 112 189 195 190 191 164 163 192 194 188 187 158 178 188 190 194 174 170 195 188 187 186 154 098 078 054 076 158 159 136 111 110 215 105 102 103 101 121 197 245 215 234 231 238 233 221 215 197 218 228 228 227 228 224 225 232 196 217 165 146 147 146 145 142 140 137 136 084 057 047 042 132 140 140 142 146 149 150 141 126 137 132 131 129 125 118 061 041 051 032 023 061 058 115 130 116 132 156 130 050 052 040 041 042 065 132 163 152 151 157 112 136 153 134 121 186 183 189 186 186 188 186 186 185 186 191 187 189 189 182 137 195 177 174 181 195 188 187 187 195 
184 184 182 179 121 091 104 182 193 187 191 192 184 151 171 190 192 189 196 157 066 176 192 195 196 201 188 118 148 199 191 189 189 191 190 194 167 173 191 163 186 194 189 189 191 185 186 187 188 196 154 101 175 193 194 189 164 147 203 182 191 193 186 160 179 190 188 193 164 183 190 192 188 192 187 143 169 165 135 145 127 120 106 112 220 093 110 118 132 133 168 232 224 220 207 189 160 157 222 227 229 224 231 231 225 225 226 232 198 214 166 147 148 148 147 144 137 133 129 104 073 056 044 132 145 147 145 147 146 150 140 120 137 134 136 132 123 125 067 039 039 029 022 051 066 120 121 126 139 161 144 059 055 036 041 044 044 067 156 151 155 162 122 147 145 141 105 190 186 191 189 187 188 185 188 187 185 188 186 191 193 186 118 181 187 196 180 175 176 190 195 183 
184 184 182 179 121 091 104 182 193 187 191 192 184 151 171 190 192 189 196 157 066 176 192 195 196 201 188 118 148 199 191 189 189 191 190 194 167 173 191 163 186 194 189 189 191 185 186 187 188 196 154 101 175 193 194 189 164 147 203 182 191 193 186 160 179 190 188 193 164 183 190 192 188 192 187 143 169 165 135 145 127 120 106 112 220 093 110 118 132 133 168 232 224 220 207 189 160 157 222 227 229 224 231 231 225 225 226 232 198 214 166 147 148 148 147 144 137 133 129 104 073 056 044 132 145 147 145 147 146 150 140 120 137 134 136 132 123 125 067 039 039 029 022 051 066 120 121 126 139 161 144 059 055 036 041 044 044 067 156 151 155 162 122 147 145 141 105 190 186 191 189 187 188 185 188 187 185 188 186 191 193 186 118 181 187 196 180 175 176 190 195 183 
187 185 182 179 131 135 123 195 185 189 190 192 178 152 179 195 192 189 194 199 110 090 193 191 196 199 183 133 137 195 192 190 187 189 185 192 188 157 199 168 176 193 186 197 190 189 193 191 198 173 098 167 195 190 177 168 153 183 188 186 185 192 185 159 180 184 191 190 162 191 185 190 185 188 192 178 170 196 181 164 136 146 113 137 226 111 110 146 155 164 170 230 204 121 121 127 118 134 232 225 230 229 228 227 225 226 229 232 200 212 170 150 150 147 143 140 139 140 134 101 080 062 041 134 145 145 143 149 149 147 139 130 138 134 139 139 129 124 067 028 035 033 017 063 063 124 131 123 138 155 120 060 056 039 043 047 046 063 152 153 155 157 128 141 151 135 098 192 188 192 189 189 187 186 190 189 187 188 187 189 197 163 103 190 188 186 188 189 184 178 186 172 
187 185 182 179 131 135 123 195 185 189 190 192 178 152 179 195 192 189 194 199 110 090 193 191 196 199 183 133 137 195 192 190 187 189 185 192 188 157 199 168 176 193 186 197 190 189 193 191 198 173 098 167 195 190 177 168 153 183 188 186 185 192 185 159 180 184 191 190 162 191 185 190 185 188 192 178 170 196 181 164 136 146 113 137 226 111 110 146 155 164 170 230 204 121 121 127 118 134 232 225 230 229 228 227 225 226 229 232 200 212 170 150 150 147 143 140 139 140 134 101 080 062 041 134 145 145 143 149 149 147 139 130 138 134 139 139 129 124 067 028 035 033 017 063 063 124 131 123 138 155 120 060 056 039 043 047 046 063 152 153 155 157 128 141 151 135 098 192 188 192 189 189 187 186 190 189 187 188 187 189 197 163 103 190 188 186 188 189 184 178 186 172 
186 184 180 181 174 166 155 195 189 188 188 185 175 145 185 189 188 193 189 197 181 067 133 196 193 200 176 136 113 193 189 191 188 193 191 188 198 168 172 193 162 183 195 190 186 191 195 192 193 094 150 201 192 176 172 186 160 193 189 187 190 197 176 158 184 184 191 175 166 197 188 195 190 192 188 190 171 171 209 181 156 165 121 136 232 115 130 160 163 163 163 221 188 123 135 124 122 148 224 224 224 223 228 225 223 228 226 234 203 218 171 144 150 147 144 139 135 133 134 106 080 060 040 126 146 149 139 142 143 154 141 123 141 142 137 136 125 127 066 031 037 030 022 054 069 117 139 140 144 132 118 081 058 041 044 048 068 120 150 156 150 154 130 141 143 126 103 199 198 199 190 192 190 191 184 188 193 186 185 190 199 164 097 186 196 193 184 192 190 193 179 169 
186 184 180 181 174 166 155 195 189 188 188 185 175 145 185 189 188 193 189 197 181 067 133 196 193 200 176 136 113 193 189 191 188 193 191 188 198 168 172 193 162 183 195 190 186 191 195 192 193 094 150 201 192 176 172 186 160 193 189 187 190 197 176 158 184 184 191 175 166 197 188 195 190 192 188 190 171 171 209 181 156 165 121 136 232 115 130 160 163 163 163 221 188 123 135 124 122 148 224 224 224 223 228 225 223 228 226 234 203 218 171 144 150 147 144 139 135 133 134 106 080 060 040 126 146 149 139 142 143 154 141 123 141 142 137 136 125 127 066 031 037 030 022 054 069 117 139 140 144 132 118 081 058 041 044 048 068 120 150 156 150 154 130 141 143 126 103 199 198 199 190 192 190 191 184 188 193 186 185 190 199 164 097 186 196 193 184 192 190 193 179 169 
193 183 186 179 170 150 168 188 192 185 190 197 172 136 194 190 184 190 192 193 199 141 066 179 194 200 188 144 111 181 189 192 192 192 191 188 193 194 154 197 178 162 195 189 194 192 198 188 094 138 205 187 166 179 200 155 195 189 191 184 188 195 171 159 184 187 196 169 179 191 191 191 189 188 193 196 193 165 230 176 144 165 110 144 227 114 144 146 123 126 155 214 213 146 158 149 140 158 223 225 227 230 226 229 230 228 229 234 200 220 173 145 145 145 143 137 134 134 136 108 098 076 046 122 136 139 147 145 147 151 140 128 147 140 136 130 116 120 069 031 042 027 024 052 059 114 138 146 146 142 138 131 127 109 117 121 138 151 151 149 150 152 134 137 131 127 059 170 207 202 217 212 187 189 188 192 189 193 192 195 197 197 122 181 190 189 184 193 189 197 174 193 
193 183 186 179 170 150 168 188 192 185 190 197 172 136 194 190 184 190 192 193 199 141 066 179 194 200 188 144 111 181 189 192 192 192 191 188 193 194 154 197 178 162 195 189 194 192 198 188 094 138 205 187 166 179 200 155 195 189 191 184 188 195 171 159 184 187 196 169 179 191 191 191 189 188 193 196 193 165 230 176 144 165 110 144 227 114 144 146 123 126 155 214 213 146 158 149 140 158 223 225 227 230 226 229 230 228 229 234 200 220 173 145 145 145 143 137 134 134 136 108 098 076 046 122 136 139 147 145 147 151 140 128 147 140 136 130 116 120 069 031 042 027 024 052 059 114 138 146 146 142 138 131 127 109 117 121 138 151 151 149 150 152 134 137 131 127 059 170 207 202 217 212 187 189 188 192 189 193 192 195 197 197 122 181 190 189 184 193 189 197 174 193 
189 187 179 179 174 156 179 184 195 186 188 191 164 133 198 186 189 186 187 192 191 198 092 100 193 202 195 132 104 161 195 193 190 190 183 197 187 195 165 169 197 158 185 190 188 194 186 106 122 206 171 164 183 193 165 175 191 190 188 190 188 196 167 167 179 190 190 166 190 184 195 185 193 191 189 188 188 194 231 159 150 153 107 161 222 127 155 128 135 146 173 230 216 145 185 143 150 164 222 231 225 225 229 227 225 229 230 234 203 217 173 147 149 144 140 138 134 131 117 109 082 107 140 068 048 052 126 144 145 146 145 126 142 133 137 132 118 118 075 032 033 034 030 045 069 111 142 150 143 147 147 148 152 144 147 150 152 154 153 145 156 158 131 132 115 118 118 171 199 192 180 167 192 190 185 182 178 184 180 188 159 203 139 173 189 184 189 188 200 199 186 212 
189 187 179 179 174 156 179 184 195 186 188 191 164 133 198 186 189 186 187 192 191 198 092 100 193 202 195 132 104 161 195 193 190 190 183 197 187 195 165 169 197 158 185 190 188 194 186 106 122 206 171 164 183 193 165 175 191 190 188 190 188 196 167 167 179 190 190 166 190 184 195 185 193 191 189 188 188 194 231 159 150 153 107 161 222 127 155 128 135 146 173 230 216 145 185 143 150 164 222 231 225 225 229 227 225 229 230 234 203 217 173 147 149 144 140 138 134 131 117 109 082 107 140 068 048 052 126 144 145 146 145 126 142 133 137 132 118 118 075 032 033 034 030 045 069 111 142 150 143 147 147 148 152 144 147 150 152 154 153 145 156 158 131 132 115 118 118 171 199 192 180 167 192 190 185 182 178 184 180 188 159 203 139 173 189 184 189 188 200 199 186 212 
187 189 182 176 142 139 163 193 190 192 185 194 156 136 204 185 194 188 188 194 188 204 169 065 140 208 192 158 103 132 199 188 189 191 196 187 190 193 186 165 195 183 155 195 194 189 124 101 199 165 175 187 195 189 159 191 187 194 187 187 192 195 168 168 175 194 179 166 195 189 187 192 191 189 190 185 190 191 227 171 146 141 089 173 211 135 161 168 182 166 167 232 209 153 183 171 184 183 229 222 228 226 228 228 228 231 227 232 206 215 171 140 147 146 139 134 130 123 098 090 077 084 144 061 041 037 119 149 143 152 140 131 144 134 135 126 118 117 074 028 039 029 024 052 064 106 142 144 150 142 140 147 144 147 148 146 148 140 145 159 124 141 127 150 120 177 195 161 195 190 144 170 147 199 192 199 189 192 203 168 158 223 150 172 200 194 193 187 202 181 193 191 
187 189 182 176 142 139 163 193 190 192 185 194 156 136 204 185 194 188 188 194 188 204 169 065 140 208 192 158 103 132 199 188 189 191 196 187 190 193 186 165 195 183 155 195 194 189 124 101 199 165 175 187 195 189 159 191 187 194 187 187 192 195 168 168 175 194 179 166 195 189 187 192 191 189 190 185 190 191 227 171 146 141 089 173 211 135 161 168 182 166 167 232 209 153 183 171 184 183 229 222 228 226 228 228 228 231 227 232 206 215 171 140 147 146 139 134 130 123 098 090 077 084 144 061 041 037 119 149 143 152 140 131 144 134 135 126 118 117 074 028 039 029 024 052 064 106 142 144 150 142 140 147 144 147 148 146 148 140 145 159 124 141 127 150 120 177 195 161 195 190 144 170 147 199 192 199 189 192 203 168 158 223 150 172 200 194 193 187 202 181 193 191 
187 183 186 174 102 090 132 200 192 192 187 199 149 153 196 188 191 191 186 185 189 193 203 119 068 181 204 172 115 108 198 187 193 185 194 190 196 190 192 169 173 200 169 185 199 125 091 181 154 187 195 185 198 161 179 188 188 184 192 192 188 197 162 167 171 193 165 173 195 187 186 187 190 189 191 193 192 187 228 155 148 122 096 157 188 112 111 147 150 165 179 231 220 215 223 216 219 218 219 226 227 224 227 227 225 226 227 235 203 213 172 142 146 140 135 130 115 108 091 081 071 057 078 039 036 035 107 143 132 151 137 132 141 135 136 124 120 117 088 033 041 032 026 042 075 106 151 145 145 148 141 139 137 140 135 133 131 121 133 156 128 069 083 163 173 167 170 197 204 202 136 208 131 192 201 202 198 205 179 118 197 216 173 171 205 200 201 198 192 185 199 199 
187 183 186 174 102 090 132 200 192 192 187 199 149 153 196 188 191 191 186 185 189 193 203 119 068 181 204 172 115 108 198 187 193 185 194 190 196 190 192 169 173 200 169 185 199 125 091 181 154 187 195 185 198 161 179 188 188 184 192 192 188 197 162 167 171 193 165 173 195 187 186 187 190 189 191 193 192 187 228 155 148 122 096 157 188 112 111 147 150 165 179 231 220 215 223 216 219 218 219 226 227 224 227 227 225 226 227 235 203 213 172 142 146 140 135 130 115 108 091 081 071 057 078 039 036 035 107 143 132 151 137 132 141 135 136 124 120 117 088 033 041 032 026 042 075 106 151 145 145 148 141 139 137 140 135 133 131 121 133 156 128 069 083 163 173 167 170 197 204 202 136 208 131 192 201 202 198 205 179 118 197 216 173 171 205 200 201 198 192 185 199 199 
189 186 191 168 097 076 140 196 188 192 189 204 129 175 191 184 192 192 185 190 187 193 197 188 091 094 209 175 126 094 189 187 192 190 189 190 188 192 188 186 159 192 191 172 115 068 163 166 196 187 191 186 182 152 190 188 193 186 190 185 192 195 153 174 176 196 154 191 189 187 190 188 191 192 189 191 197 194 219 143 145 157 148 140 209 184 211 224 227 224 227 223 209 221 221 224 225 229 230 224 229 222 225 228 225 224 225 235 200 208 170 141 145 144 138 116 107 092 082 087 076 053 039 030 030 032 094 134 125 142 138 130 137 133 133 122 121 120 090 032 036 027 024 042 071 100 152 153 163 151 162 152 146 166 156 153 155 158 142 146 151 113 132 125 111 102 091 094 114 175 127 100 089 089 093 088 083 084 075 069 073 079 059 070 062 067 068 066 066 063 068 065 
189 186 191 168 097 076 140 196 188 192 189 204 129 175 191 184 192 192 185 190 187 193 197 188 091 094 209 175 126 094 189 187 192 190 189 190 188 192 188 186 159 192 191 172 115 068 163 166 196 187 191 186 182 152 190 188 193 186 190 185 192 195 153 174 176 196 154 191 189 187 190 188 191 192 189 191 197 194 219 143 145 157 148 140 209 184 211 224 227 224 227 223 209 221 221 224 225 229 230 224 229 222 225 228 225 224 225 235 200 208 170 141 145 144 138 116 107 092 082 087 076 053 039 030 030 032 094 134 125 142 138 130 137 133 133 122 121 120 090 032 036 027 024 042 071 100 152 153 163 151 162 152 146 166 156 153 155 158 142 146 151 113 132 125 111 102 091 094 114 175 127 100 089 089 093 088 083 084 075 069 073 079 059 070 062 067 068 066 066 063 068 065 
190 190 191 150 116 082 142 198 190 193 189 191 140 193 189 194 189 189 195 195 190 193 192 201 155 058 154 204 120 090 176 191 188 191 190 187 189 199 189 192 163 178 206 138 067 133 185 195 191 192 187 193 159 180 187 190 190 188 188 191 185 199 159 174 181 184 156 193 189 189 190 192 190 194 196 180 150 108 195 164 135 159 120 153 238 224 225 225 227 225 232 218 218 232 221 226 229 226 226 223 228 226 225 225 226 227 223 237 199 209 165 137 144 141 138 112 104 096 091 077 074 062 040 031 040 033 099 128 136 138 137 124 136 134 136 126 118 119 084 034 043 056 081 122 163 188 147 131 100 066 082 077 066 064 054 043 038 034 033 026 030 024 017 029 029 025 030 025 027 054 127 108 034 032 020 030 024 023 025 026 024 020 024 026 021 022 021 020 023 028 019 026 
190 190 191 150 116 082 142 198 190 193 189 191 140 193 189 194 189 189 195 195 190 193 192 201 155 058 154 204 120 090 176 191 188 191 190 187 189 199 189 192 163 178 206 138 067 133 185 195 191 192 187 193 159 180 187 190 190 188 188 191 185 199 159 174 181 184 156 193 189 189 190 192 190 194 196 180 150 108 195 164 135 159 120 153 238 224 225 225 227 225 232 218 218 232 221 226 229 226 226 223 228 226 225 225 226 227 223 237 199 209 165 137 144 141 138 112 104 096 091 077 074 062 040 031 040 033 099 128 136 138 137 124 136 134 136 126 118 119 084 034 043 056 081 122 163 188 147 131 100 066 082 077 066 064 054 043 038 034 033 026 030 024 017 029 029 025 030 025 027 054 127 108 034 032 020 030 024 023 025 026 024 020 024 026 021 022 021 020 023 028 019 026 
191 191 172 153 117 077 151 202 188 195 193 186 147 197 188 195 189 191 190 192 191 193 188 193 194 105 081 188 150 079 164 194 189 194 188 186 190 188 193 188 180 166 162 093 129 184 193 186 188 186 197 168 169 191 191 189 189 190 190 190 187 198 151 182 183 170 173 196 184 191 194 190 189 199 167 116 091 060 186 143 132 123 081 148 234 227 232 237 226 223 226 225 222 225 217 224 228 226 228 222 227 225 225 229 223 225 226 231 203 214 155 136 140 141 135 107 121 110 111 082 066 048 034 035 039 033 109 142 187 128 147 128 143 137 131 122 124 126 135 130 150 164 156 145 096 084 078 146 068 040 035 025 019 022 030 026 025 020 022 027 022 024 025 026 027 027 028 027 026 030 048 118 101 033 031 026 027 023 024 029 025 021 030 022 022 021 027 026 019 026 025 028 
191 191 172 153 117 077 151 202 188 195 193 186 147 197 188 195 189 191 190 192 191 193 188 193 194 105 081 188 150 079 164 194 189 194 188 186 190 188 193 188 180 166 162 093 129 184 193 186 188 186 197 168 169 191 191 189 189 190 190 190 187 198 151 182 183 170 173 196 184 191 194 190 189 199 167 116 091 060 186 143 132 123 081 148 234 227 232 237 226 223 226 225 222 225 217 224 228 226 228 222 227 225 225 229 223 225 226 231 203 214 155 136 140 141 135 107 121 110 111 082 066 048 034 035 039 033 109 142 187 128 147 128 143 137 131 122 124 126 135 130 150 164 156 145 096 084 078 146 068 040 035 025 019 022 030 026 025 020 022 027 022 024 025 026 027 027 028 027 026 030 048 118 101 033 031 026 027 023 024 029 025 021 030 022 022 021 027 026 019 026 025 028 
188 190 168 164 113 103 159 199 190 197 185 179 147 203 192 189 191 196 191 194 190 198 195 196 200 170 054 120 178 076 149 195 188 192 189 192 193 188 189 191 193 165 105 170 177 166 194 188 190 185 189 152 193 189 191 187 189 187 186 192 190 196 152 187 176 159 193 189 195 189 195 185 195 180 091 088 114 135 199 133 122 097 078 152 234 232 228 229 221 218 229 222 212 228 225 231 226 225 227 220 233 226 223 228 222 231 228 234 200 211 151 137 147 138 142 111 114 100 094 079 063 049 045 038 036 036 111 146 162 128 143 133 144 151 152 154 155 138 113 089 074 073 072 094 094 101 116 132 045 054 031 034 025 032 026 025 023 028 031 024 021 023 027 024 021 025 027 023 024 025 023 033 106 094 033 023 021 021 025 021 026 026 021 024 025 025 027 027 025 022 026 025 
188 190 168 164 113 103 159 199 190 197 185 179 147 203 192 189 191 196 191 194 190 198 195 196 200 170 054 120 178 076 149 195 188 192 189 192 193 188 189 191 193 165 105 170 177 166 194 188 190 185 189 152 193 189 191 187 189 187 186 192 190 196 152 187 176 159 193 189 195 189 195 185 195 180 091 088 114 135 199 133 122 097 078 152 234 232 228 229 221 218 229 222 212 228 225 231 226 225 227 220 233 226 223 228 222 231 228 234 200 211 151 137 147 138 142 111 114 100 094 079 063 049 045 038 036 036 111 146 162 128 143 133 144 151 152 154 155 138 113 089 074 073 072 094 094 101 116 132 045 054 031 034 025 032 026 025 023 028 031 024 021 023 027 024 021 025 027 023 024 025 023 033 106 094 033 023 021 021 025 021 026 026 021 024 025 025 027 027 025 022 026 025 
196 178 179 173 149 142 165 204 195 197 188 178 140 212 190 193 194 194 198 195 197 195 195 195 201 209 138 045 158 085 131 193 197 192 199 199 193 197 196 194 186 104 122 206 197 163 180 199 193 198 161 182 200 191 192 190 190 191 195 197 195 197 154 186 172 167 194 193 188 190 188 190 205 117 076 100 158 198 200 138 132 102 079 134 236 220 225 226 221 222 223 215 211 231 227 228 230 224 226 216 224 228 226 228 227 227 223 234 198 215 158 142 148 149 141 118 112 093 090 080 070 066 046 044 037 032 100 133 166 154 158 139 125 114 096 079 079 082 092 093 100 102 105 106 095 097 119 115 039 066 041 025 027 018 025 028 028 032 033 038 040 040 053 051 054 058 072 078 084 088 086 085 083 116 096 105 112 114 118 127 130 137 133 136 137 134 140 143 139 140 145 139 
196 178 179 173 149 142 165 204 195 197 188 178 140 212 190 193 194 194 198 195 197 195 195 195 201 209 138 045 158 085 131 193 197 192 199 199 193 197 196 194 186 104 122 206 197 163 180 199 193 198 161 182 200 191 192 190 190 191 195 197 195 197 154 186 172 167 194 193 188 190 188 190 205 117 076 100 158 198 200 138 132 102 079 134 236 220 225 226 221 222 223 215 211 231 227 228 230 224 226 216 224 228 226 228 227 227 223 234 198 215 158 142 148 149 141 118 112 093 090 080 070 066 046 044 037 032 100 133 166 154 158 139 125 114 096 079 079 082 092 093 100 102 105 106 095 097 119 115 039 066 041 025 027 018 025 028 028 032 033 038 040 040 053 051 054 058 072 078 084 088 086 085 083 116 096 105 112 114 118 127 130 137 133 136 137 134 140 143 139 140 145 139 
[...]
062 056 060 053 062 063 063 066 064 063 064 064 074 147 150 137 157 142 116 109 126 147 123 112 143 151 131 156 142 094 062 063 062 052 032 058 101 178 132 096 080 126 114 104 071 110 114 085 085 092 101 128 142 181 199 208 220 232 235 243 228 233 229 234 219 232 223 219 225 224 234 225 231 224 216 213 220 222 215 215 226 221 210 220 202 219 224 224 218 205 208 209 202 205 217 210 214 207 217 204 197 201 202 185 182 178 167 168 165 167 164 143 137 130 139 112 124 128 116 116 103 100 092 102 110 111 092 071 050 027 031 035 036 050 050 040 043 038 032 025 031 027 027 019 028 020 030 023 030 030 030 033 027 028 034 030 029 034 026 031 025 027 031 027 029 026 028 025 026 016 024 024 023 028 025 020 020 022 024 025 021 018 023 017 016 022 019 018 053 070 080 077 
057 059 062 056 062 066 061 060 063 062 073 065 069 083 149 140 148 136 085 083 165 147 142 106 150 153 124 158 168 109 072 073 066 060 049 096 178 168 137 116 121 127 134 154 165 181 183 195 203 205 199 203 223 240 240 235 236 231 229 233 219 219 222 209 221 234 229 227 233 223 213 215 218 191 200 204 202 218 209 203 196 191 189 190 207 212 215 205 189 199 215 219 205 208 205 191 171 164 169 165 166 177 179 172 169 169 166 172 172 171 177 150 127 122 109 094 082 087 084 108 104 122 126 101 064 042 029 026 033 033 039 044 044 044 041 038 035 028 031 028 027 025 020 026 034 023 024 034 030 034 034 028 033 033 029 032 031 027 030 030 030 026 028 027 030 025 029 028 024 026 021 023 026 019 022 025 025 019 014 017 021 021 024 023 023 023 022 013 049 111 048 068 
057 059 062 056 062 066 061 060 063 062 073 065 069 083 149 140 148 136 085 083 165 147 142 106 150 153 124 158 168 109 072 073 066 060 049 096 178 168 137 116 121 127 134 154 165 181 183 195 203 205 199 203 223 240 240 235 236 231 229 233 219 219 222 209 221 234 229 227 233 223 213 215 218 191 200 204 202 218 209 203 196 191 189 190 207 212 215 205 189 199 215 219 205 208 205 191 171 164 169 165 166 177 179 172 169 169 166 172 172 171 177 150 127 122 109 094 082 087 084 108 104 122 126 101 064 042 029 026 033 033 039 044 044 044 041 038 035 028 031 028 027 025 020 026 034 023 024 034 030 034 034 028 033 033 029 032 031 027 030 030 030 026 028 027 030 025 029 028 024 026 021 023 026 019 022 025 025 019 014 017 021 021 024 023 023 023 022 013 049 111 048 068 
150 156 163 168 176 195 078 054 044 085 154 118 126 091 136 138 161 141 097 088 122 129 140 095 104 131 141 171 210 166 100 105 095 088 066 144 210 213 238 238 244 236 216 217 205 209 208 199 208 194 193 196 222 225 231 225 221 224 220 222 225 230 219 208 214 214 231 230 225 225 226 201 196 200 201 202 183 201 189 191 201 194 198 210 194 182 189 176 176 167 156 159 166 156 161 169 168 162 167 160 160 163 158 162 155 165 163 156 166 159 151 138 098 105 088 087 115 131 115 100 068 052 043 047 051 034 033 032 039 042 035 024 031 034 033 033 028 029 025 025 024 032 036 035 026 034 036 032 027 031 029 029 034 034 031 035 028 035 024 031 020 022 024 028 028 025 031 026 023 020 023 026 023 019 021 026 029 022 018 023 024 021 021 022 021 019 022 024 018 072 067 057 
150 156 163 168 176 195 078 054 044 085 154 118 126 091 136 138 161 141 097 088 122 129 140 095 104 131 141 171 210 166 100 105 095 088 066 144 210 213 238 238 244 236 216 217 205 209 208 199 208 194 193 196 222 225 231 225 221 224 220 222 225 230 219 208 214 214 231 230 225 225 226 201 196 200 201 202 183 201 189 191 201 194 198 210 194 182 189 176 176 167 156 159 166 156 161 169 168 162 167 160 160 163 158 162 155 165 163 156 166 159 151 138 098 105 088 087 115 131 115 100 068 052 043 047 051 034 033 032 039 042 035 024 031 034 033 033 028 029 025 025 024 032 036 035 026 034 036 032 027 031 029 029 034 034 031 035 028 035 024 031 020 022 024 028 028 025 031 026 023 020 023 026 023 019 021 026 029 022 018 023 024 021 021 022 021 019 022 024 018 072 067 057 
192 188 189 188 190 212 079 042 055 052 069 084 075 065 067 153 167 077 132 213 205 218 222 219 202 204 192 198 212 164 105 111 102 108 083 171 226 233 239 242 239 238 206 200 191 197 178 165 162 164 171 201 220 224 234 216 215 226 228 221 219 201 207 214 198 195 231 229 221 227 227 231 226 224 222 199 164 179 170 173 175 174 175 167 160 163 161 157 164 168 167 162 169 162 168 164 162 159 170 158 161 146 146 135 149 166 168 149 125 128 119 113 074 087 121 083 066 045 031 037 033 032 037 035 035 029 049 041 040 035 033 030 029 028 027 027 028 033 033 032 034 033 031 031 032 034 034 032 030 030 032 031 029 029 031 028 028 028 026 023 026 022 023 025 025 020 028 020 021 026 023 019 023 022 022 022 026 021 018 025 020 021 021 023 020 021 026 016 018 022 074 047 
192 188 189 188 190 212 079 042 055 052 069 084 075 065 067 153 167 077 132 213 205 218 222 219 202 204 192 198 212 164 105 111 102 108 083 171 226 233 239 242 239 238 206 200 191 197 178 165 162 164 171 201 220 224 234 216 215 226 228 221 219 201 207 214 198 195 231 229 221 227 227 231 226 224 222 199 164 179 170 173 175 174 175 167 160 163 161 157 164 168 167 162 169 162 168 164 162 159 170 158 161 146 146 135 149 166 168 149 125 128 119 113 074 087 121 083 066 045 031 037 033 032 037 035 035 029 049 041 040 035 033 030 029 028 027 027 028 033 033 032 034 033 031 031 032 034 034 032 030 030 032 031 029 029 031 028 028 028 026 023 026 022 023 025 025 020 028 020 021 026 023 019 023 022 022 022 026 021 018 025 020 021 021 023 020 021 026 016 018 022 074 047 
186 190 193 199 207 207 152 148 162 168 198 217 198 204 209 205 148 105 189 239 234 227 233 234 216 217 219 204 209 143 101 091 088 093 065 153 227 223 229 225 224 229 200 173 186 187 187 134 144 190 205 199 211 208 227 221 230 238 240 231 223 230 233 239 229 223 222 216 206 200 187 179 162 146 133 129 141 171 158 171 170 165 166 165 167 166 162 154 160 161 162 161 161 160 164 158 159 148 143 118 140 142 148 153 154 144 103 103 091 083 079 064 051 044 035 034 030 032 050 047 024 026 033 026 029 028 032 030 028 028 027 023 028 024 031 035 031 035 036 038 036 036 030 028 030 028 027 029 031 028 031 023 029 028 027 028 027 027 018 018 023 024 024 017 020 026 019 020 024 021 022 026 021 026 021 022 026 025 023 022 023 023 021 025 020 025 019 010 011 011 023 036 
186 190 193 199 207 207 152 148 162 168 198 217 198 204 209 205 148 105 189 239 234 227 233 234 216 217 219 204 209 143 101 091 088 093 065 153 227 223 229 225 224 229 200 173 186 187 187 134 144 190 205 199 211 208 227 221 230 238 240 231 223 230 233 239 229 223 222 216 206 200 187 179 162 146 133 129 141 171 158 171 170 165 166 165 167 166 162 154 160 161 162 161 161 160 164 158 159 148 143 118 140 142 148 153 154 144 103 103 091 083 079 064 051 044 035 034 030 032 050 047 024 026 033 026 029 028 032 030 028 028 027 023 028 024 031 035 031 035 036 038 036 036 030 028 030 028 027 029 031 028 031 023 029 028 027 028 027 027 018 018 023 024 024 017 020 026 019 020 024 021 022 026 021 026 021 022 026 025 023 022 023 023 021 025 020 025 019 010 011 011 023 036 
217 220 219 220 225 221 228 219 222 226 220 224 226 229 237 167 086 141 224 211 227 232 233 233 219 218 213 174 195 106 071 067 058 067 056 115 211 212 217 222 231 216 210 170 175 180 180 150 199 188 160 190 200 178 201 192 195 186 187 180 177 194 172 161 144 150 138 131 118 121 109 112 113 116 117 118 113 151 159 158 180 172 167 166 166 163 155 158 159 157 160 160 163 162 158 150 153 144 144 134 124 110 126 136 106 082 075 066 057 072 064 068 049 039 037 029 025 029 028 030 027 027 024 024 026 026 024 028 022 028 026 026 033 030 039 040 038 031 029 033 031 029 027 025 025 026 023 024 028 025 027 019 026 025 024 025 023 025 026 026 025 025 022 024 017 023 025 018 019 017 018 022 020 020 020 021 023 022 023 025 028 024 018 024 017 018 018 016 012 014 011 009 
217 220 219 220 225 221 228 219 222 226 220 224 226 229 237 167 086 141 224 211 227 232 233 233 219 218 213 174 195 106 071 067 058 067 056 115 211 212 217 222 231 216 210 170 175 180 180 150 199 188 160 190 200 178 201 192 195 186 187 180 177 194 172 161 144 150 138 131 118 121 109 112 113 116 117 118 113 151 159 158 180 172 167 166 166 163 155 158 159 157 160 160 163 162 158 150 153 144 144 134 124 110 126 136 106 082 075 066 057 072 064 068 049 039 037 029 025 029 028 030 027 027 024 024 026 026 024 028 022 028 026 026 033 030 039 040 038 031 029 033 031 029 027 025 025 026 023 024 028 025 027 019 026 025 024 025 023 025 026 026 025 025 022 024 017 023 025 018 019 017 018 022 020 020 020 021 023 022 023 025 028 024 018 024 017 018 018 016 012 014 011 009 
229 228 232 231 227 232 234 231 230 230 230 228 231 232 228 135 110 212 236 231 224 232 228 234 237 222 211 161 174 077 059 045 045 052 052 104 201 197 219 221 211 219 234 189 163 146 131 135 110 100 099 150 191 191 197 180 183 160 151 128 120 115 113 114 111 112 115 113 107 109 104 110 108 109 111 112 122 152 147 167 155 157 151 162 153 164 155 153 162 166 173 173 172 163 161 154 154 153 149 167 154 134 129 115 106 081 055 054 067 051 036 037 039 039 042 040 038 038 043 031 023 020 019 022 022 022 032 029 031 031 030 028 034 034 032 028 037 033 033 025 026 027 031 025 021 026 027 024 021 024 028 019 024 022 022 023 024 023 021 023 022 027 023 020 025 020 021 023 017 023 023 020 023 021 021 017 026 026 023 028 021 025 015 020 018 011 021 011 013 011 014 014 
229 228 232 231 227 232 234 231 230 230 230 228 231 232 228 135 110 212 236 231 224 232 228 234 237 222 211 161 174 077 059 045 045 052 052 104 201 197 219 221 211 219 234 189 163 146 131 135 110 100 099 150 191 191 197 180 183 160 151 128 120 115 113 114 111 112 115 113 107 109 104 110 108 109 111 112 122 152 147 167 155 157 151 162 153 164 155 153 162 166 173 173 172 163 161 154 154 153 149 167 154 134 129 115 106 081 055 054 067 051 036 037 039 039 042 040 038 038 043 031 023 020 019 022 022 022 032 029 031 031 030 028 034 034 032 028 037 033 033 025 026 027 031 025 021 026 027 024 021 024 028 019 024 022 022 023 024 023 021 023 022 027 023 020 025 020 021 023 017 023 023 020 023 021 021 017 026 026 023 028 021 025 015 020 018 011 021 011 013 011 014 014 
234 233 232 232 232 230 229 231 232 232 227 229 223 236 157 081 147 204 207 229 227 228 228 227 227 229 213 157 163 072 058 042 041 034 055 059 199 212 230 227 211 188 173 169 114 096 094 089 093 089 107 128 135 117 109 112 110 106 111 110 113 112 110 110 114 114 115 110 107 107 101 107 110 106 110 102 108 118 143 154 150 147 143 152 166 143 145 150 165 169 167 160 165 157 166 158 159 169 145 101 115 118 105 112 090 053 036 039 036 039 042 040 034 032 031 033 033 030 033 027 023 017 016 028 030 028 033 031 030 030 039 041 031 036 037 032 032 030 033 033 033 033 027 019 023 029 019 027 024 025 022 023 022 024 024 025 026 023 024 027 021 019 021 019 020 021 021 024 024 020 021 019 021 023 021 023 019 020 017 018 018 016 018 018 017 016 006 007 012 012 008 010 
234 233 232 232 232 230 229 231 232 232 227 229 223 236 157 081 147 204 207 229 227 228 228 227 227 229 213 157 163 072 058 042 041 034 055 059 199 212 230 227 211 188 173 169 114 096 094 089 093 089 107 128 135 117 109 112 110 106 111 110 113 112 110 110 114 114 115 110 107 107 101 107 110 106 110 102 108 118 143 154 150 147 143 152 166 143 145 150 165 169 167 160 165 157 166 158 159 169 145 101 115 118 105 112 090 053 036 039 036 039 042 040 034 032 031 033 033 030 033 027 023 017 016 028 030 028 033 031 030 030 039 041 031 036 037 032 032 030 033 033 033 033 027 019 023 029 019 027 024 025 022 023 022 024 024 025 026 023 024 027 021 019 021 019 020 021 021 024 024 020 021 019 021 023 021 023 019 020 017 018 018 016 018 018 017 016 006 007 012 012 008 010 
213 213 212 211 214 214 219 214 223 220 225 225 228 211 119 089 192 213 200 211 221 222 219 225 229 221 209 200 179 076 073 053 055 045 048 068 195 214 213 200 196 163 135 131 117 094 089 087 083 083 105 107 109 105 103 107 103 103 102 107 107 107 107 108 109 109 107 107 103 105 098 100 105 102 103 102 104 112 143 121 122 136 154 164 167 161 166 145 164 166 174 167 175 161 141 126 093 077 076 055 050 061 059 064 048 046 036 037 029 033 040 038 037 038 033 023 018 019 014 021 030 038 042 040 037 030 033 028 033 030 035 033 035 029 029 029 023 029 026 026 026 023 027 022 026 027 026 020 016 021 018 025 021 028 023 027 027 026 024 023 025 024 021 022 022 023 024 026 025 022 024 026 021 023 024 025 021 017 017 014 014 008 011 008 009 009 008 013 009 007 007 007 
213 213 212 211 214 214 219 214 223 220 225 225 228 211 119 089 192 213 200 211 221 222 219 225 229 221 209 200 179 076 073 053 055 045 048 068 195 214 213 200 196 163 135 131 117 094 089 087 083 083 105 107 109 105 103 107 103 103 102 107 107 107 107 108 109 109 107 107 103 105 098 100 105 102 103 102 104 112 143 121 122 136 154 164 167 161 166 145 164 166 174 167 175 161 141 126 093 077 076 055 050 061 059 064 048 046 036 037 029 033 040 038 037 038 033 023 018 019 014 021 030 038 042 040 037 030 033 028 033 030 035 033 035 029 029 029 023 029 026 026 026 023 027 022 026 027 026 020 016 021 018 025 021 028 023 027 027 026 024 023 025 024 021 022 022 023 024 026 025 022 024 026 021 023 024 025 021 017 017 014 014 008 011 008 009 009 008 013 009 007 007 007 
233 231 230 229 218 207 197 178 176 160 159 146 130 115 088 092 143 138 141 174 216 221 221 226 224 231 218 197 163 076 065 053 050 045 034 028 096 113 100 089 089 086 095 097 101 105 090 088 084 096 106 099 109 107 108 102 105 100 104 110 099 101 101 097 087 093 092 099 089 096 096 092 095 094 096 091 092 105 120 090 114 139 142 162 162 170 166 124 130 122 127 123 107 093 067 055 054 056 047 039 052 051 044 033 042 030 018 032 044 038 027 024 029 023 015 015 022 030 034 041 040 040 042 035 035 029 028 029 037 029 026 026 031 034 027 023 031 030 026 026 023 022 029 017 030 018 016 023 023 017 025 018 019 026 028 017 014 027 015 019 019 027 022 022 019 020 020 022 025 021 021 027 022 030 029 019 024 016 018 014 013 013 007 012 014 009 016 012 015 006 014 009 
233 231 230 229 218 207 197 178 176 160 159 146 130 115 088 092 143 138 141 174 216 221 221 226 224 231 218 197 163 076 065 053 050 045 034 028 096 113 100 089 089 086 095 097 101 105 090 088 084 096 106 099 109 107 108 102 105 100 104 110 099 101 101 097 087 093 092 099 089 096 096 092 095 094 096 091 092 105 120 090 114 139 142 162 162 170 166 124 130 122 127 123 107 093 067 055 054 056 047 039 052 051 044 033 042 030 018 032 044 038 027 024 029 023 015 015 022 030 034 041 040 040 042 035 035 029 028 029 037 029 026 026 031 034 027 023 031 030 026 026 023 022 029 017 030 018 016 023 023 017 025 018 019 026 028 017 014 027 015 019 019 027 022 022 019 020 020 022 025 021 021 027 022 030 029 019 024 016 018 014 013 013 007 012 014 009 016 012 015 006 014 009 
132 130 125 099 106 099 094 105 104 102 116 105 111 109 059 084 106 112 112 106 172 225 220 215 211 210 198 172 156 075 062 047 041 039 032 029 063 071 075 082 084 080 078 085 088 093 097 099 101 103 100 103 102 102 098 099 101 097 094 093 091 093 092 090 093 090 090 093 089 090 091 095 087 091 085 086 092 090 103 073 078 100 120 132 139 117 109 080 072 058 062 055 063 041 057 054 057 052 046 045 045 039 033 029 028 027 038 029 027 030 025 016 018 019 022 026 030 032 032 026 032 028 030 029 028 028 028 030 025 024 028 028 026 028 028 027 031 027 025 024 023 020 018 022 021 023 024 024 029 026 021 025 023 021 019 020 019 021 022 019 023 019 025 023 024 020 019 017 022 018 025 019 026 022 025 019 015 019 017 017 009 012 014 018 016 012 012 016 010 014 012 008 
132 130 125 099 106 099 094 105 104 102 116 105 111 109 059 084 106 112 112 106 172 225 220 215 211 210 198 172 156 075 062 047 041 039 032 029 063 071 075 082 084 080 078 085 088 093 097 099 101 103 100 103 102 102 098 099 101 097 094 093 091 093 092 090 093 090 090 093 089 090 091 095 087 091 085 086 092 090 103 073 078 100 120 132 139 117 109 080 072 058 062 055 063 041 057 054 057 052 046 045 045 039 033 029 028 027 038 029 027 030 025 016 018 019 022 026 030 032 032 026 032 028 030 029 028 028 028 030 025 024 028 028 026 028 028 027 031 027 025 024 023 020 018 022 021 023 024 024 029 026 021 025 023 021 019 020 019 021 022 019 023 019 025 023 024 020 019 017 022 018 025 019 026 022 025 019 015 019 017 017 009 012 014 018 016 012 012 016 010 014 012 008 
102 103 103 098 102 098 102 096 105 114 104 108 120 102 076 104 081 083 082 088 098 159 202 203 191 179 176 184 152 064 060 042 039 032 048 047 056 078 079 072 072 075 075 078 084 091 091 094 096 093 095 093 087 091 086 091 091 095 090 093 086 090 090 087 093 089 082 091 084 082 087 086 080 083 087 084 081 078 076 064 057 068 071 062 071 064 056 048 040 038 033 037 051 051 052 052 039 030 028 033 029 032 023 027 026 026 027 030 026 018 020 018 028 028 032 033 034 030 031 022 031 024 030 033 028 026 030 027 026 030 030 031 029 030 025 024 020 024 019 023 020 024 021 018 020 024 026 026 023 019 015 022 019 022 015 020 021 018 026 017 028 018 028 021 021 018 016 020 019 021 018 025 021 025 019 017 012 009 006 014 012 015 014 012 013 015 016 015 017 010 014 017 
102 103 103 098 102 098 102 096 105 114 104 108 120 102 076 104 081 083 082 088 098 159 202 203 191 179 176 184 152 064 060 042 039 032 048 047 056 078 079 072 072 075 075 078 084 091 091 094 096 093 095 093 087 091 086 091 091 095 090 093 086 090 090 087 093 089 082 091 084 082 087 086 080 083 087 084 081 078 076 064 057 068 071 062 071 064 056 048 040 038 033 037 051 051 052 052 039 030 028 033 029 032 023 027 026 026 027 030 026 018 020 018 028 028 032 033 034 030 031 022 031 024 030 033 028 026 030 027 026 030 030 031 029 030 025 024 020 024 019 023 020 024 021 018 020 024 026 026 023 019 015 022 019 022 015 020 021 018 026 017 028 018 028 021 021 018 016 020 019 021 018 025 021 025 019 017 012 009 006 014 012 015 014 012 013 015 016 015 017 010 014 017 
098 094 103 088 092 091 075 083 093 089 095 109 099 045 068 071 070 060 066 068 059 077 137 166 155 133 180 196 139 060 060 041 040 029 075 064 042 078 082 072 070 076 076 075 072 075 081 078 079 084 084 086 088 087 090 093 092 093 082 090 085 086 087 083 082 081 085 080 080 072 079 069 075 074 069 068 066 060 064 065 065 040 041 032 036 035 054 061 063 052 035 030 029 025 029 023 028 019 027 017 024 025 029 016 016 018 014 017 011 021 018 015 016 019 019 021 017 020 016 016 023 025 029 023 023 024 022 017 020 023 020 027 018 015 013 020 018 016 017 015 021 021 021 013 021 019 012 013 014 014 007 016 011 019 009 012 016 012 018 011 015 012 013 017 013 014 019 016 016 010 021 014 022 022 015 002 008 020 009 009 007 007 012 009 009 006 005 006 002 010 008 003 
098 094 103 088 092 091 075 083 093 089 095 109 099 045 068 071 070 060 066 068 059 077 137 166 155 133 180 196 139 060 060 041 040 029 075 064 042 078 082 072 070 076 076 075 072 075 081 078 079 084 084 086 088 087 090 093 092 093 082 090 085 086 087 083 082 081 085 080 080 072 079 069 075 074 069 068 066 060 064 065 065 040 041 032 036 035 054 061 063 052 035 030 029 025 029 023 028 019 027 017 024 025 029 016 016 018 014 017 011 021 018 015 016 019 019 021 017 020 016 016 023 025 029 023 023 024 022 017 020 023 020 027 018 015 013 020 018 016 017 015 021 021 021 013 021 019 012 013 014 014 007 016 011 019 009 012 016 012 018 011 015 012 013 017 013 014 019 016 016 010 021 014 022 022 015 002 008 020 009 009 007 007 012 009 009 006 005 006 002 010 008 003 
Exiting @ tick 74638985500 because target called exit()
